17

 C   -2.397994883744    0.994374573286    0.000000000000
 H   -3.463054883744    1.244244573286    0.000000000000
 H   -2.167624883744    0.405934573286    0.901930000000
 H   -2.167624883744    0.405934573286   -0.901930000000
 C   -1.587294883744    2.270424573286    0.000000000000
 O   -2.003394883744    3.401514573286    0.000000000000
 O   -0.220324883744    1.978124573286    0.000000000000
 H    0.246145116256    2.834814573286    0.000000000000
 K    0.059765116256   -0.536565426714    0.000000000000
 O    0.181531809524   -1.629805049309    0.000000000000
 H   -0.284942393664   -2.486487324287    0.000000000000
 C    1.548489201449   -1.922106380575    0.000000000000
 O    1.964595720827   -3.053195415325    0.000000000000
 C    2.359201348057   -0.646051800456    0.000000000000
 H    3.424264575891   -0.895916886280    0.000000000000
 H    2.128826525453   -0.057608392296   -0.901930947969
 H    2.128826525453   -0.057608392296    0.901930947969
