17

 C   -2.406352002398    1.069406037129    0.000000000000
 H   -3.471412002398    1.319276037129    0.000000000000
 H   -2.175982002398    0.480966037129    0.901930000000
 H   -2.175982002398    0.480966037129   -0.901930000000
 C   -1.595652002398    2.345456037129    0.000000000000
 O   -2.011752002398    3.476546037129    0.000000000000
 O   -0.228682002398    2.053156037129    0.000000000000
 H    0.237787997602    2.909846037129    0.000000000000
 K    0.051407997602   -0.461533962871    0.000000000000
 O    0.195314089645   -1.753544425937    0.000000000000
 H   -0.271160113542   -2.610226700914    0.000000000000
 C    1.562271481571   -2.045845757203    0.000000000000
 O    1.978378000949   -3.176934791953    0.000000000000
 C    2.372983628179   -0.769791177084    0.000000000000
 H    3.438046856013   -1.019656262908    0.000000000000
 H    2.142608805575   -0.181347768924   -0.901930947969
 H    2.142608805575   -0.181347768924    0.901930947969
