17

 C   -2.427244799033    1.256984696739    0.000000000000
 H   -3.492304799033    1.506854696739    0.000000000000
 H   -2.196874799033    0.668544696739    0.901930000000
 H   -2.196874799033    0.668544696739   -0.901930000000
 C   -1.616544799033    2.533034696739    0.000000000000
 O   -2.032644799033    3.664124696739    0.000000000000
 O   -0.249574799033    2.240734696739    0.000000000000
 H    0.216895200967    3.097424696739    0.000000000000
 K    0.030515200967   -0.273955303261    0.000000000000
 O    0.229769789950   -2.062892867507    0.000000000000
 H   -0.236704413237   -2.919575142484    0.000000000000
 C    1.596727181876   -2.355194198773    0.000000000000
 O    2.012833701254   -3.486283233522    0.000000000000
 C    2.407439328483   -1.079139618653    0.000000000000
 H    3.472502556318   -1.329004704478    0.000000000000
 H    2.177064505879   -0.490696210494   -0.901930947969
 H    2.177064505879   -0.490696210494    0.901930947969
