17

 C   -2.431423358360    1.294500428661    0.000000000000
 H   -3.496483358360    1.544370428661    0.000000000000
 H   -2.201053358360    0.706060428661    0.901930000000
 H   -2.201053358360    0.706060428661   -0.901930000000
 C   -1.620723358360    2.570550428661    0.000000000000
 O   -2.036823358360    3.701640428661    0.000000000000
 O   -0.253753358360    2.278250428661    0.000000000000
 H    0.212716641640    3.134940428661    0.000000000000
 K    0.026336641640   -0.236439571339    0.000000000000
 O    0.236660930011   -2.124762555821    0.000000000000
 H   -0.229813273176   -2.981444830798    0.000000000000
 C    1.603618321937   -2.417063887087    0.000000000000
 O    2.019724841315   -3.548152921836    0.000000000000
 C    2.414330468544   -1.141009306967    0.000000000000
 H    3.479393696379   -1.390874392792    0.000000000000
 H    2.183955645940   -0.552565898808   -0.901930947969
 H    2.183955645940   -0.552565898808    0.901930947969
