17

 C   -2.439780477014    1.369531892505    0.000000000000
 H   -3.504840477014    1.619401892505    0.000000000000
 H   -2.209410477014    0.781091892505    0.901930000000
 H   -2.209410477014    0.781091892505   -0.901930000000
 C   -1.629080477014    2.645581892505    0.000000000000
 O   -2.045180477014    3.776671892505    0.000000000000
 O   -0.262110477014    2.353281892505    0.000000000000
 H    0.204359522986    3.209971892505    0.000000000000
 K    0.017979522986   -0.161408107495    0.000000000000
 O    0.250443210133   -2.248501932448    0.000000000000
 H   -0.216030993054   -3.105184207426    0.000000000000
 C    1.617400602059   -2.540803263714    0.000000000000
 O    2.033507121436   -3.671892298464    0.000000000000
 C    2.428112748666   -1.264748683595    0.000000000000
 H    3.493175976501   -1.514613769420    0.000000000000
 H    2.197737926062   -0.676305275436   -0.901930947969
 H    2.197737926062   -0.676305275436    0.901930947969
