17

 C   -2.443959036341    1.407047624427    0.000000000000
 H   -3.509019036341    1.656917624427    0.000000000000
 H   -2.213589036341    0.818607624427    0.901930000000
 H   -2.213589036341    0.818607624427   -0.901930000000
 C   -1.633259036341    2.683097624427    0.000000000000
 O   -2.049359036341    3.814187624427    0.000000000000
 O   -0.266289036341    2.390797624427    0.000000000000
 H    0.200180963659    3.247487624427    0.000000000000
 K    0.013800963659   -0.123892375573    0.000000000000
 O    0.257334350194   -2.310371620762    0.000000000000
 H   -0.209139852993   -3.167053895740    0.000000000000
 C    1.624291742120   -2.602672952028    0.000000000000
 O    2.040398261497   -3.733761986778    0.000000000000
 C    2.435003888727   -1.326618371909    0.000000000000
 H    3.500067116562   -1.576483457734    0.000000000000
 H    2.204629066123   -0.738174963750   -0.901930947969
 H    2.204629066123   -0.738174963750    0.901930947969
