17

 C   -2.448137595668    1.444563356349    0.000000000000
 H   -3.513197595668    1.694433356349    0.000000000000
 H   -2.217767595668    0.856123356349    0.901930000000
 H   -2.217767595668    0.856123356349   -0.901930000000
 C   -1.637437595668    2.720613356349    0.000000000000
 O   -2.053537595668    3.851703356349    0.000000000000
 O   -0.270467595668    2.428313356349    0.000000000000
 H    0.196002404332    3.285003356349    0.000000000000
 K    0.009622404332   -0.086376643651    0.000000000000
 O    0.264225490255   -2.372241309076    0.000000000000
 H   -0.202248712932   -3.228923584054    0.000000000000
 C    1.631182882181   -2.664542640342    0.000000000000
 O    2.047289401558   -3.795631675092    0.000000000000
 C    2.441895028788   -1.388488060223    0.000000000000
 H    3.506958256623   -1.638353146048    0.000000000000
 H    2.211520206184   -0.800044652064   -0.901930947969
 H    2.211520206184   -0.800044652064    0.901930947969
