17

 C   -2.452316154995    1.482079088271    0.000000000000
 H   -3.517376154995    1.731949088271    0.000000000000
 H   -2.221946154995    0.893639088271    0.901930000000
 H   -2.221946154995    0.893639088271   -0.901930000000
 C   -1.641616154995    2.758129088271    0.000000000000
 O   -2.057716154995    3.889219088271    0.000000000000
 O   -0.274646154995    2.465829088271    0.000000000000
 H    0.191823845005    3.322519088271    0.000000000000
 K    0.005443845005   -0.048860911729    0.000000000000
 O    0.271116630316   -2.434110997390    0.000000000000
 H   -0.195357572872   -3.290793272368    0.000000000000
 C    1.638074022241   -2.726412328656    0.000000000000
 O    2.054180541619   -3.857501363406    0.000000000000
 C    2.448786168849   -1.450357748537    0.000000000000
 H    3.513849396684   -1.700222834362    0.000000000000
 H    2.218411346245   -0.861914340378   -0.901930947969
 H    2.218411346245   -0.861914340378    0.901930947969
