17

 C   -2.460673273649    1.557110552115    0.000000000000
 H   -3.525733273649    1.806980552115    0.000000000000
 H   -2.230303273649    0.968670552115    0.901930000000
 H   -2.230303273649    0.968670552115   -0.901930000000
 C   -1.649973273649    2.833160552115    0.000000000000
 O   -2.066073273649    3.964250552115    0.000000000000
 O   -0.283003273649    2.540860552115    0.000000000000
 H    0.183466726351    3.397550552115    0.000000000000
 K   -0.002913273649    0.026170552115    0.000000000000
 O    0.284898910438   -2.557850374018    0.000000000000
 H   -0.181575292750   -3.414532648996    0.000000000000
 C    1.651856302363   -2.850151705284    0.000000000000
 O    2.067962821741   -3.981240740034    0.000000000000
 C    2.462568448971   -1.574097125165    0.000000000000
 H    3.527631676806   -1.823962210990    0.000000000000
 H    2.232193626367   -0.985653717006   -0.901930947969
 H    2.232193626367   -0.985653717006    0.901930947969
