17

 C   -2.477387510957    1.707173479802    0.000000000000
 H   -3.542447510957    1.957043479802    0.000000000000
 H   -2.247017510957    1.118733479802    0.901930000000
 H   -2.247017510957    1.118733479802   -0.901930000000
 C   -1.666687510957    2.983223479802    0.000000000000
 O   -2.082787510957    4.114313479802    0.000000000000
 O   -0.299717510957    2.690923479802    0.000000000000
 H    0.166752489043    3.547613479802    0.000000000000
 K   -0.019627510957    0.176233479802    0.000000000000
 O    0.312463470681   -2.805329127274    0.000000000000
 H   -0.154010732506   -3.662011402251    0.000000000000
 C    1.679420862607   -3.097630458540    0.000000000000
 O    2.095527381985   -4.228719493290    0.000000000000
 C    2.490133009215   -1.821575878421    0.000000000000
 H    3.555196237049   -2.071440964245    0.000000000000
 H    2.259758186611   -1.233132470261   -0.901930947969
 H    2.259758186611   -1.233132470261    0.901930947969
