17

 C   -2.489923188938    1.819720675568    0.000000000000
 H   -3.554983188938    2.069590675568    0.000000000000
 H   -2.259553188938    1.231280675568    0.901930000000
 H   -2.259553188938    1.231280675568   -0.901930000000
 C   -1.679223188938    3.095770675568    0.000000000000
 O   -2.095323188938    4.226860675568    0.000000000000
 O   -0.312253188938    2.803470675568    0.000000000000
 H    0.154216811062    3.660160675568    0.000000000000
 K   -0.032163188938    0.288780675568    0.000000000000
 O    0.333136890864   -2.990938192216    0.000000000000
 H   -0.133337312323   -3.847620467193    0.000000000000
 C    1.700094282790   -3.283239523482    0.000000000000
 O    2.116200802168   -4.414328558232    0.000000000000
 C    2.510806429397   -2.007184943363    0.000000000000
 H    3.575869657232   -2.257050029187    0.000000000000
 H    2.280431606794   -1.418741535203   -0.901930947969
 H    2.280431606794   -1.418741535203    0.901930947969
