17

 C   -2.523351663554    2.119846530944    0.000000000000
 H   -3.588411663554    2.369716530944    0.000000000000
 H   -2.292981663554    1.531406530944    0.901930000000
 H   -2.292981663554    1.531406530944   -0.901930000000
 C   -1.712651663554    3.395896530944    0.000000000000
 O   -2.128751663554    4.526986530944    0.000000000000
 O   -0.345681663554    3.103596530944    0.000000000000
 H    0.120788336446    3.960286530944    0.000000000000
 K   -0.065591663554    0.588906530944    0.000000000000
 O    0.388266011352   -3.485895698727    0.000000000000
 H   -0.078208191836   -4.342577973705    0.000000000000
 C    1.755223403277   -3.778197029993    0.000000000000
 O    2.171329922655   -4.909286064743    0.000000000000
 C    2.565935549885   -2.502142449874    0.000000000000
 H    3.630998777720   -2.752007535699    0.000000000000
 H    2.335560727281   -1.913699041715   -0.901930947969
 H    2.335560727281   -1.913699041715    0.901930947969
