17

 C   -2.544244460189    2.307425190553    0.000000000000
 H   -3.609304460189    2.557295190553    0.000000000000
 H   -2.313874460189    1.718985190553    0.901930000000
 H   -2.313874460189    1.718985190553   -0.901930000000
 C   -1.733544460189    3.583475190553    0.000000000000
 O   -2.149644460189    4.714565190553    0.000000000000
 O   -0.366574460189    3.291175190553    0.000000000000
 H    0.099895539811    4.147865190553    0.000000000000
 K   -0.086484460189    0.776485190553    0.000000000000
 O    0.422721711657   -3.795244140297    0.000000000000
 H   -0.043752491531   -4.651926415274    0.000000000000
 C    1.789679103582   -4.087545471563    0.000000000000
 O    2.205785622960   -5.218634506313    0.000000000000
 C    2.600391250190   -2.811490891444    0.000000000000
 H    3.665454478024   -3.061355977268    0.000000000000
 H    2.370016427586   -2.223047483284   -0.901930947969
 H    2.370016427586   -2.223047483284    0.901930947969
