17

 C   -2.548423019516    2.344940922475    0.000000000000
 H   -3.613483019516    2.594810922475    0.000000000000
 H   -2.318053019516    1.756500922475    0.901930000000
 H   -2.318053019516    1.756500922475   -0.901930000000
 C   -1.737723019516    3.620990922475    0.000000000000
 O   -2.153823019516    4.752080922475    0.000000000000
 O   -0.370753019516    3.328690922475    0.000000000000
 H    0.095716980484    4.185380922475    0.000000000000
 K   -0.090663019516    0.814000922475    0.000000000000
 O    0.429612851718   -3.857113828611    0.000000000000
 H   -0.036861351470   -4.713796103588    0.000000000000
 C    1.796570243643   -4.149415159877    0.000000000000
 O    2.212676763021   -5.280504194627    0.000000000000
 C    2.607282390251   -2.873360579758    0.000000000000
 H    3.672345618085   -3.123225665582    0.000000000000
 H    2.376907567647   -2.284917171598   -0.901930947969
 H    2.376907567647   -2.284917171598    0.901930947969
