17

 C   -2.565137256824    2.495003850163    0.000000000000
 H   -3.630197256824    2.744873850163    0.000000000000
 H   -2.334767256824    1.906563850163    0.901930000000
 H   -2.334767256824    1.906563850163   -0.901930000000
 C   -1.754437256824    3.771053850163    0.000000000000
 O   -2.170537256824    4.902143850163    0.000000000000
 O   -0.387467256824    3.478753850163    0.000000000000
 H    0.079002743176    4.335443850163    0.000000000000
 K   -0.107377256824    0.964063850163    0.000000000000
 O    0.457177411961   -4.104592581867    0.000000000000
 H   -0.009296791226   -4.961274856844    0.000000000000
 C    1.824134803887   -4.396893913133    0.000000000000
 O    2.240241323265   -5.527982947882    0.000000000000
 C    2.634846950494   -3.120839333013    0.000000000000
 H    3.699910178329   -3.370704418838    0.000000000000
 H    2.404472127891   -2.532395924854   -0.901930947969
 H    2.404472127891   -2.532395924854    0.901930947969
