17

 C   -2.573494375478    2.570035314007    0.000000000000
 H   -3.638554375478    2.819905314007    0.000000000000
 H   -2.343124375478    1.981595314007    0.901930000000
 H   -2.343124375478    1.981595314007   -0.901930000000
 C   -1.762794375478    3.846085314007    0.000000000000
 O   -2.178894375478    4.977175314007    0.000000000000
 O   -0.395824375478    3.553785314007    0.000000000000
 H    0.070645624522    4.410475314007    0.000000000000
 K   -0.115734375478    1.039095314007    0.000000000000
 O    0.470959692083   -4.228331958494    0.000000000000
 H    0.004485488896   -5.085014233472    0.000000000000
 C    1.837917084009   -4.520633289760    0.000000000000
 O    2.254023603387   -5.651722324510    0.000000000000
 C    2.648629230616   -3.244578709641    0.000000000000
 H    3.713692458451   -3.494443795466    0.000000000000
 H    2.418254408012   -2.656135301482   -0.901930947969
 H    2.418254408012   -2.656135301482    0.901930947969
