17

 C   -2.581851494132    2.645066777851    0.000000000000
 H   -3.646911494132    2.894936777851    0.000000000000
 H   -2.351481494132    2.056626777851    0.901930000000
 H   -2.351481494132    2.056626777851   -0.901930000000
 C   -1.771151494132    3.921116777851    0.000000000000
 O   -2.187251494132    5.052206777851    0.000000000000
 O   -0.404181494132    3.628816777851    0.000000000000
 H    0.062288505868    4.485506777851    0.000000000000
 K   -0.124091494132    1.114126777851    0.000000000000
 O    0.484741972205   -4.352071335122    0.000000000000
 H    0.018267769018   -5.208753610100    0.000000000000
 C    1.851699364131   -4.644372666388    0.000000000000
 O    2.267805883509   -5.775461701138    0.000000000000
 C    2.662411510738   -3.368318086269    0.000000000000
 H    3.727474738573   -3.618183172094    0.000000000000
 H    2.432036688134   -2.779874678110   -0.901930947969
 H    2.432036688134   -2.779874678110    0.901930947969
