17

 C   -2.590208612786    2.720098241694    0.000000000000
 H   -3.655268612786    2.969968241694    0.000000000000
 H   -2.359838612786    2.131658241694    0.901930000000
 H   -2.359838612786    2.131658241694   -0.901930000000
 C   -1.779508612786    3.996148241694    0.000000000000
 O   -2.195608612786    5.127238241694    0.000000000000
 O   -0.412538612786    3.703848241694    0.000000000000
 H    0.053931387214    4.560538241694    0.000000000000
 K   -0.132448612786    1.189158241694    0.000000000000
 O    0.498524252327   -4.475810711750    0.000000000000
 H    0.032050049140   -5.332492986728    0.000000000000
 C    1.865481644253   -4.768112043016    0.000000000000
 O    2.281588163630   -5.899201077766    0.000000000000
 C    2.676193790860   -3.492057462897    0.000000000000
 H    3.741257018695   -3.741922548722    0.000000000000
 H    2.445818968256   -2.903614054738   -0.901930947969
 H    2.445818968256   -2.903614054738    0.901930947969
