17

 C   -2.594387172113    2.757613973616    0.000000000000
 H   -3.659447172113    3.007483973616    0.000000000000
 H   -2.364017172113    2.169173973616    0.901930000000
 H   -2.364017172113    2.169173973616   -0.901930000000
 C   -1.783687172113    4.033663973616    0.000000000000
 O   -2.199787172113    5.164753973616    0.000000000000
 O   -0.416717172113    3.741363973616    0.000000000000
 H    0.049752827887    4.598053973616    0.000000000000
 K   -0.136627172113    1.226673973616    0.000000000000
 O    0.505415392388   -4.537680400064    0.000000000000
 H    0.038941189200   -5.394362675042    0.000000000000
 C    1.872372784313   -4.829981731330    0.000000000000
 O    2.288479303691   -5.961070766080    0.000000000000
 C    2.683084930921   -3.553927151211    0.000000000000
 H    3.748148158756   -3.803792237036    0.000000000000
 H    2.452710108317   -2.965483743052   -0.901930947969
 H    2.452710108317   -2.965483743052    0.901930947969
