17

 C   -2.615279968748    2.945192633226    0.000000000000
 H   -3.680339968748    3.195062633226    0.000000000000
 H   -2.384909968748    2.356752633226    0.901930000000
 H   -2.384909968748    2.356752633226   -0.901930000000
 C   -1.804579968748    4.221242633226    0.000000000000
 O   -2.220679968748    5.352332633226    0.000000000000
 O   -0.437609968748    3.928942633226    0.000000000000
 H    0.028860031252    4.785632633226    0.000000000000
 K   -0.157519968748    1.414252633226    0.000000000000
 O    0.539871092693   -4.847028841634    0.000000000000
 H    0.073396889505   -5.703711116611    0.000000000000
 C    1.906828484618   -5.139330172900    0.000000000000
 O    2.322935003996   -6.270419207650    0.000000000000
 C    2.717540631226   -3.863275592781    0.000000000000
 H    3.782603859060   -4.113140678605    0.000000000000
 H    2.487165808622   -3.274832184621   -0.901930947969
 H    2.487165808622   -3.274832184621    0.901930947969
