17

 C   -2.627815646729    3.057739828992    0.000000000000
 H   -3.692875646729    3.307609828992    0.000000000000
 H   -2.397445646729    2.469299828992    0.901930000000
 H   -2.397445646729    2.469299828992   -0.901930000000
 C   -1.817115646729    4.333789828992    0.000000000000
 O   -2.233215646729    5.464879828992    0.000000000000
 O   -0.450145646729    4.041489828992    0.000000000000
 H    0.016324353271    4.898179828992    0.000000000000
 K   -0.170055646729    1.526799828992    0.000000000000
 O    0.560544512875   -5.032637906576    0.000000000000
 H    0.094070309688   -5.889320181553    0.000000000000
 C    1.927501904801   -5.324939237842    0.000000000000
 O    2.343608424179   -6.456028272591    0.000000000000
 C    2.738214051408   -4.048884657722    0.000000000000
 H    3.803277279243   -4.298749743547    0.000000000000
 H    2.507839228805   -3.460441249563   -0.901930947969
 H    2.507839228805   -3.460441249563    0.901930947969
