17

 C   -2.636172765383    3.132771292836    0.000000000000
 H   -3.701232765383    3.382641292836    0.000000000000
 H   -2.405802765383    2.544331292836    0.901930000000
 H   -2.405802765383    2.544331292836   -0.901930000000
 C   -1.825472765383    4.408821292836    0.000000000000
 O   -2.241572765383    5.539911292836    0.000000000000
 O   -0.458502765383    4.116521292836    0.000000000000
 H    0.007967234617    4.973211292836    0.000000000000
 K   -0.178412765383    1.601831292836    0.000000000000
 O    0.574326792997   -5.156377283203    0.000000000000
 H    0.107852589810   -6.013059558181    0.000000000000
 C    1.941284184923   -5.448678614470    0.000000000000
 O    2.357390704301   -6.579767649219    0.000000000000
 C    2.751996331530   -4.172624034350    0.000000000000
 H    3.817059559365   -4.422489120175    0.000000000000
 H    2.521621508927   -3.584180626191   -0.901930947969
 H    2.521621508927   -3.584180626191    0.901930947969
