17

 C   -2.648708443364    3.245318488602    0.000000000000
 H   -3.713768443364    3.495188488602    0.000000000000
 H   -2.418338443364    2.656878488602    0.901930000000
 H   -2.418338443364    2.656878488602   -0.901930000000
 C   -1.838008443364    4.521368488602    0.000000000000
 O   -2.254108443364    5.652458488602    0.000000000000
 O   -0.471038443364    4.229068488602    0.000000000000
 H   -0.004568443364    5.085758488602    0.000000000000
 K   -0.190948443364    1.714378488602    0.000000000000
 O    0.595000213180   -5.341986348145    0.000000000000
 H    0.128526009993   -6.198668623123    0.000000000000
 C    1.961957605106   -5.634287679411    0.000000000000
 O    2.378064124484   -6.765376714161    0.000000000000
 C    2.772669751713   -4.358233099292    0.000000000000
 H    3.837732979548   -4.608098185117    0.000000000000
 H    2.542294929109   -3.769789691133   -0.901930947969
 H    2.542294929109   -3.769789691133    0.901930947969
