17

 C   -2.657065562018    3.320349952445    0.000000000000
 H   -3.722125562018    3.570219952445    0.000000000000
 H   -2.426695562018    2.731909952445    0.901930000000
 H   -2.426695562018    2.731909952445   -0.901930000000
 C   -1.846365562018    4.596399952445    0.000000000000
 O   -2.262465562018    5.727489952445    0.000000000000
 O   -0.479395562018    4.304099952445    0.000000000000
 H   -0.012925562018    5.160789952445    0.000000000000
 K   -0.199305562018    1.789409952445    0.000000000000
 O    0.608782493302   -5.465725724773    0.000000000000
 H    0.142308290115   -6.322407999751    0.000000000000
 C    1.975739885228   -5.758027056039    0.000000000000
 O    2.391846404605   -6.889116090789    0.000000000000
 C    2.786452031835   -4.481972475920    0.000000000000
 H    3.851515259670   -4.731837561745    0.000000000000
 H    2.556077209231   -3.893529067761   -0.901930947969
 H    2.556077209231   -3.893529067761    0.901930947969
