17

 C   -2.669601239999    3.432897148211    0.000000000000
 H   -3.734661239999    3.682767148211    0.000000000000
 H   -2.439231239999    2.844457148211    0.901930000000
 H   -2.439231239999    2.844457148211   -0.901930000000
 C   -1.858901239999    4.708947148211    0.000000000000
 O   -2.275001239999    5.840037148211    0.000000000000
 O   -0.491931239999    4.416647148211    0.000000000000
 H   -0.025461239999    5.273337148211    0.000000000000
 K   -0.211841239999    1.901957148211    0.000000000000
 O    0.629455913485   -5.651334789715    0.000000000000
 H    0.162981710297   -6.508017064693    0.000000000000
 C    1.996413305410   -5.943636120981    0.000000000000
 O    2.412519824788   -7.074725155731    0.000000000000
 C    2.807125452018   -4.667581540862    0.000000000000
 H    3.872188679853   -4.917446626686    0.000000000000
 H    2.576750629414   -4.079138132702   -0.901930947969
 H    2.576750629414   -4.079138132702    0.901930947969
