17

 C   -2.690494036634    3.620475807821    0.000000000000
 H   -3.755554036634    3.870345807821    0.000000000000
 H   -2.460124036634    3.032035807821    0.901930000000
 H   -2.460124036634    3.032035807821   -0.901930000000
 C   -1.879794036634    4.896525807821    0.000000000000
 O   -2.295894036634    6.027615807821    0.000000000000
 O   -0.512824036634    4.604225807821    0.000000000000
 H   -0.046354036634    5.460915807821    0.000000000000
 K   -0.232734036634    2.089535807821    0.000000000000
 O    0.663911613790   -5.960683231285    0.000000000000
 H    0.197437410602   -6.817365506262    0.000000000000
 C    2.030869005715   -6.252984562551    0.000000000000
 O    2.446975525093   -7.384073597301    0.000000000000
 C    2.841581152323   -4.976929982432    0.000000000000
 H    3.906644380157   -5.226795068256    0.000000000000
 H    2.611206329719   -4.388486574272   -0.901930947969
 H    2.611206329719   -4.388486574272    0.901930947969
