17

 C   -2.707208273942    3.770538735509    0.000000000000
 H   -3.772268273942    4.020408735509    0.000000000000
 H   -2.476838273942    3.182098735509    0.901930000000
 H   -2.476838273942    3.182098735509   -0.901930000000
 C   -1.896508273942    5.046588735509    0.000000000000
 O   -2.312608273942    6.177678735509    0.000000000000
 O   -0.529538273942    4.754288735509    0.000000000000
 H   -0.063068273942    5.610978735509    0.000000000000
 K   -0.249448273942    2.239598735509    0.000000000000
 O    0.691476174033   -6.208161984540    0.000000000000
 H    0.225001970846   -7.064844259518    0.000000000000
 C    2.058433565959   -6.500463315806    0.000000000000
 O    2.474540085337   -7.631552350556    0.000000000000
 C    2.869145712566   -5.224408735687    0.000000000000
 H    3.934208940401   -5.474273821512    0.000000000000
 H    2.638770889963   -4.635965327528   -0.901930947969
 H    2.638770889963   -4.635965327528    0.901930947969
