17

 C   -2.723922511250    3.920601663196    0.000000000000
 H   -3.788982511250    4.170471663196    0.000000000000
 H   -2.493552511250    3.332161663196    0.901930000000
 H   -2.493552511250    3.332161663196   -0.901930000000
 C   -1.913222511250    5.196651663196    0.000000000000
 O   -2.329322511250    6.327741663196    0.000000000000
 O   -0.546252511250    4.904351663196    0.000000000000
 H   -0.079782511250    5.761041663196    0.000000000000
 K   -0.266162511250    2.389661663196    0.000000000000
 O    0.719040734277   -6.455640737796    0.000000000000
 H    0.252566531090   -7.312323012774    0.000000000000
 C    2.085998126203   -6.747942069062    0.000000000000
 O    2.502104645581   -7.879031103812    0.000000000000
 C    2.896710272810   -5.471887488943    0.000000000000
 H    3.961773500645   -5.721752574768    0.000000000000
 H    2.666335450206   -4.883444080784   -0.901930947969
 H    2.666335450206   -4.883444080784    0.901930947969
