17

 C   -2.753172426539    4.183211786650    0.000000000000
 H   -3.818232426539    4.433081786650    0.000000000000
 H   -2.522802426539    3.594771786650    0.901930000000
 H   -2.522802426539    3.594771786650   -0.901930000000
 C   -1.942472426539    5.459261786650    0.000000000000
 O   -2.358572426539    6.590351786650    0.000000000000
 O   -0.575502426539    5.166961786650    0.000000000000
 H   -0.109032426539    6.023651786650    0.000000000000
 K   -0.295412426539    2.652271786650    0.000000000000
 O    0.767278714704   -6.888728555994    0.000000000000
 H    0.300804511516   -7.745410830971    0.000000000000
 C    2.134236106629   -7.181029887260    0.000000000000
 O    2.550342626007   -8.312118922010    0.000000000000
 C    2.944948253237   -5.904975307141    0.000000000000
 H    4.010011481072   -6.154840392965    0.000000000000
 H    2.714573430633   -5.316531898981   -0.901930947969
 H    2.714573430633   -5.316531898981    0.901930947969
