17

 C   -2.761529545193    4.258243250494    0.000000000000
 H   -3.826589545193    4.508113250494    0.000000000000
 H   -2.531159545193    3.669803250494    0.901930000000
 H   -2.531159545193    3.669803250494   -0.901930000000
 C   -1.950829545193    5.534293250494    0.000000000000
 O   -2.366929545193    6.665383250494    0.000000000000
 O   -0.583859545193    5.241993250494    0.000000000000
 H   -0.117389545193    6.098683250494    0.000000000000
 K   -0.303769545193    2.727303250494    0.000000000000
 O    0.781060994826   -7.012467932622    0.000000000000
 H    0.314586791638   -7.869150207599    0.000000000000
 C    2.148018386751   -7.304769263888    0.000000000000
 O    2.564124906129   -8.435858298637    0.000000000000
 C    2.958730533359   -6.028714683769    0.000000000000
 H    4.023793761193   -6.278579769593    0.000000000000
 H    2.728355710755   -5.440271275609   -0.901930947969
 H    2.728355710755   -5.440271275609    0.901930947969
