23

 C   -5.501047959797   -0.912795058944    0.000000000000
 C   -5.518207959797   -2.418255058944    0.000000000000
 O   -6.794667959797   -2.871625058944    0.000000000000
 C   -6.916817959797   -4.316305058944    0.000000000000
 O   -4.538037959797   -3.149685058944    0.000000000000
 H   -4.474657959797   -0.535555058944    0.000000000000
 H   -6.033037959797   -0.545585058944    0.886990000000
 H   -6.033037959797   -0.545585058944   -0.886990000000
 H   -7.993257959797   -4.510815058944    0.000000000000
 H   -6.442127959797   -4.734765058944    0.896410000000
 H   -6.442127959797   -4.734765058944   -0.896410000000
CS    1.300252040203    0.902454941056    0.000000000000
 O    2.203920543945    1.529657647799    0.000000000000
 C    3.184088508974    0.798237590356    0.000000000000
 O    4.460548203638    1.251600165232    0.000000000000
 C    4.582701373658    2.696285123503    0.000000000000
 H    5.659137618311    2.890801416127    0.000000000000
 H    4.108010462513    3.114752770955   -0.896412193030
 H    4.108010462513    3.114752770955    0.896412193030
 C    3.166929410811   -0.707224624032    0.000000000000
 H    2.140547726182   -1.084457652224    0.000000000000
 H    3.698926789351   -1.074427914800   -0.886992973465
 H    3.698926789351   -1.074427914800    0.886992973465
