23

 C   -5.544341200485   -0.942843287504    0.000000000000
 C   -5.561501200485   -2.448303287504    0.000000000000
 O   -6.837961200485   -2.901673287504    0.000000000000
 C   -6.960111200485   -4.346353287504    0.000000000000
 O   -4.581331200485   -3.179733287504    0.000000000000
 H   -4.517951200485   -0.565603287504    0.000000000000
 H   -6.076331200485   -0.575633287504    0.886990000000
 H   -6.076331200485   -0.575633287504   -0.886990000000
 H   -8.036551200485   -4.540863287504    0.000000000000
 H   -6.485421200485   -4.764813287504    0.896410000000
 H   -6.485421200485   -4.764813287504   -0.896410000000
CS    1.256958799515    0.872406712496    0.000000000000
 O    2.324930667573    1.613646275010    0.000000000000
 C    3.305098632603    0.882226217567    0.000000000000
 O    4.581558327267    1.335588792443    0.000000000000
 C    4.703711497287    2.780273750714    0.000000000000
 H    5.780147741940    2.974790043339    0.000000000000
 H    4.229020586142    3.198741398167   -0.896412193030
 H    4.229020586142    3.198741398167    0.896412193030
 C    3.287939534440   -0.623235996821    0.000000000000
 H    2.261557849811   -1.000469025013    0.000000000000
 H    3.819936912980   -0.990439287589   -0.886992973465
 H    3.819936912980   -0.990439287589    0.886992973465
