23

 C   -5.587634441173   -0.972891516064    0.000000000000
 C   -5.604794441173   -2.478351516064    0.000000000000
 O   -6.881254441173   -2.931721516064    0.000000000000
 C   -7.003404441173   -4.376401516064    0.000000000000
 O   -4.624624441173   -3.209781516064    0.000000000000
 H   -4.561244441173   -0.595651516064    0.000000000000
 H   -6.119624441173   -0.605681516064    0.886990000000
 H   -6.119624441173   -0.605681516064   -0.886990000000
 H   -8.079844441173   -4.570911516064    0.000000000000
 H   -6.528714441173   -4.794861516064    0.896410000000
 H   -6.528714441173   -4.794861516064   -0.896410000000
CS    1.213665558827    0.842358483936    0.000000000000
 O    2.445940791202    1.697634902221    0.000000000000
 C    3.426108756232    0.966214844778    0.000000000000
 O    4.702568450896    1.419577419654    0.000000000000
 C    4.824721620915    2.864262377925    0.000000000000
 H    5.901157865569    3.058778670550    0.000000000000
 H    4.350030709771    3.282730025378   -0.896412193030
 H    4.350030709771    3.282730025378    0.896412193030
 C    3.408949658069   -0.539247369610    0.000000000000
 H    2.382567973440   -0.916480397802    0.000000000000
 H    3.940947036609   -0.906450660377   -0.886992973465
 H    3.940947036609   -0.906450660377    0.886992973465
