23

 C   -5.674220922548   -1.032987973185    0.000000000000
 C   -5.691380922548   -2.538447973185    0.000000000000
 O   -6.967840922548   -2.991817973185    0.000000000000
 C   -7.089990922548   -4.436497973185    0.000000000000
 O   -4.711210922548   -3.269877973185    0.000000000000
 H   -4.647830922548   -0.655747973185    0.000000000000
 H   -6.206210922548   -0.665777973185    0.886990000000
 H   -6.206210922548   -0.665777973185   -0.886990000000
 H   -8.166430922548   -4.631007973185    0.000000000000
 H   -6.615300922548   -4.854957973185    0.896410000000
 H   -6.615300922548   -4.854957973185   -0.896410000000
CS    1.127079077452    0.782262026815    0.000000000000
 O    2.687961038460    1.865612156644    0.000000000000
 C    3.668129003489    1.134192099201    0.000000000000
 O    4.944588698153    1.587554674077    0.000000000000
 C    5.066741868173    3.032239632348    0.000000000000
 H    6.143178112826    3.226755924972    0.000000000000
 H    4.592050957029    3.450707279800   -0.896412193030
 H    4.592050957029    3.450707279800    0.896412193030
 C    3.650969905326   -0.371270115187    0.000000000000
 H    2.624588220697   -0.748503143379    0.000000000000
 H    4.182967283866   -0.738473405955   -0.886992973465
 H    4.182967283866   -0.738473405955    0.886992973465
