23

 C   -7.427597170407   -2.249941229874    0.000000000000
 C   -7.444757170407   -3.755401229874    0.000000000000
 O   -8.721217170407   -4.208771229874    0.000000000000
 C   -8.843367170407   -5.653451229874    0.000000000000
 O   -6.464587170407   -4.486831229874    0.000000000000
 H   -6.401207170407   -1.872701229874    0.000000000000
 H   -7.959587170407   -1.882731229874    0.886990000000
 H   -7.959587170407   -1.882731229874   -0.886990000000
 H   -9.919807170407   -5.847961229874    0.000000000000
 H   -8.368677170407   -6.071911229874    0.896410000000
 H   -8.368677170407   -6.071911229874   -0.896410000000
CS   -0.626297170407   -0.434691229874    0.000000000000
 O    7.588871045424    5.267151558698    0.000000000000
 C    8.569039010453    4.535731501255    0.000000000000
 O    9.845498705118    4.989094076131    0.000000000000
 C    9.967651875137    6.433779034402    0.000000000000
 H   11.044088119791    6.628295327027    0.000000000000
 H    9.492960963993    6.852246681855   -0.896412193030
 H    9.492960963993    6.852246681855    0.896412193030
 C    8.551879912291    3.030269286867    0.000000000000
 H    7.525498227662    2.653036258675    0.000000000000
 H    9.083877290831    2.663065996100   -0.886992973465
 H    9.083877290831    2.663065996100    0.886992973465
