23

 C   -5.717514163236   -1.063036201745    0.000000000000
 C   -5.734674163236   -2.568496201745    0.000000000000
 O   -7.011134163236   -3.021866201745    0.000000000000
 C   -7.133284163236   -4.466546201745    0.000000000000
 O   -4.754504163236   -3.299926201745    0.000000000000
 H   -4.691124163236   -0.685796201745    0.000000000000
 H   -6.249504163236   -0.695826201745    0.886990000000
 H   -6.249504163236   -0.695826201745   -0.886990000000
 H   -8.209724163236   -4.661056201745    0.000000000000
 H   -6.658594163236   -4.885006201745    0.896410000000
 H   -6.658594163236   -4.885006201745   -0.896410000000
CS    1.083785836764    0.752213798255    0.000000000000
 O    2.808971162088    1.949600783855    0.000000000000
 C    3.789139127118    1.218180726412    0.000000000000
 O    5.065598821782    1.671543301288    0.000000000000
 C    5.187751991802    3.116228259559    0.000000000000
 H    6.264188236455    3.310744552183    0.000000000000
 H    4.713061080657    3.534695907011   -0.896412193030
 H    4.713061080657    3.534695907011    0.896412193030
 C    3.771980028955   -0.287281487976    0.000000000000
 H    2.745598344326   -0.664514516168    0.000000000000
 H    4.303977407495   -0.654484778744   -0.886992973465
 H    4.303977407495   -0.654484778744    0.886992973465
