23

 C   -5.739160783580   -1.078060316025    0.000000000000
 C   -5.756320783580   -2.583520316025    0.000000000000
 O   -7.032780783580   -3.036890316025    0.000000000000
 C   -7.154930783580   -4.481570316025    0.000000000000
 O   -4.776150783580   -3.314950316025    0.000000000000
 H   -4.712770783580   -0.700820316025    0.000000000000
 H   -6.271150783580   -0.710850316025    0.886990000000
 H   -6.271150783580   -0.710850316025   -0.886990000000
 H   -8.231370783580   -4.676080316025    0.000000000000
 H   -6.680240783580   -4.900030316025    0.896410000000
 H   -6.680240783580   -4.900030316025   -0.896410000000
CS    1.062139216420    0.737189683975    0.000000000000
 O    2.869476223903    1.991595097461    0.000000000000
 C    3.849644188932    1.260175040018    0.000000000000
 O    5.126103883596    1.713537614894    0.000000000000
 C    5.248257053616    3.158222573164    0.000000000000
 H    6.324693298269    3.352738865789    0.000000000000
 H    4.773566142472    3.576690220617   -0.896412193030
 H    4.773566142472    3.576690220617    0.896412193030
 C    3.832485090769   -0.245287174370    0.000000000000
 H    2.806103406141   -0.622520202562    0.000000000000
 H    4.364482469310   -0.612490465138   -0.886992973465
 H    4.364482469310   -0.612490465138    0.886992973465
