23

 C   -5.760807403924   -1.093084430305    0.000000000000
 C   -5.777967403924   -2.598544430305    0.000000000000
 O   -7.054427403924   -3.051914430305    0.000000000000
 C   -7.176577403924   -4.496594430305    0.000000000000
 O   -4.797797403924   -3.329974430305    0.000000000000
 H   -4.734417403924   -0.715844430305    0.000000000000
 H   -6.292797403924   -0.725874430305    0.886990000000
 H   -6.292797403924   -0.725874430305   -0.886990000000
 H   -8.253017403924   -4.691104430305    0.000000000000
 H   -6.701887403924   -4.915054430305    0.896410000000
 H   -6.701887403924   -4.915054430305   -0.896410000000
CS    1.040492596076    0.722165569695    0.000000000000
 O    2.929981285717    2.033589411066    0.000000000000
 C    3.910149250747    1.302169353623    0.000000000000
 O    5.186608945411    1.755531928499    0.000000000000
 C    5.308762115430    3.200216886770    0.000000000000
 H    6.385198360084    3.394733179395    0.000000000000
 H    4.834071204286    3.618684534223   -0.896412193030
 H    4.834071204286    3.618684534223    0.896412193030
 C    3.892990152584   -0.203292860765    0.000000000000
 H    2.866608467955   -0.580525888957    0.000000000000
 H    4.424987531124   -0.570496151533   -0.886992973465
 H    4.424987531124   -0.570496151533    0.886992973465
