23

 C   -5.782454024268   -1.108108544586    0.000000000000
 C   -5.799614024268   -2.613568544586    0.000000000000
 O   -7.076074024268   -3.066938544586    0.000000000000
 C   -7.198224024268   -4.511618544586    0.000000000000
 O   -4.819444024268   -3.344998544586    0.000000000000
 H   -4.756064024268   -0.730868544586    0.000000000000
 H   -6.314444024268   -0.740898544586    0.886990000000
 H   -6.314444024268   -0.740898544586   -0.886990000000
 H   -8.274664024268   -4.706128544586    0.000000000000
 H   -6.723534024268   -4.930078544586    0.896410000000
 H   -6.723534024268   -4.930078544586   -0.896410000000
CS    1.018845975732    0.707141455414    0.000000000000
 O    2.990486347531    2.075583724672    0.000000000000
 C    3.970654312561    1.344163667229    0.000000000000
 O    5.247114007225    1.797526242105    0.000000000000
 C    5.369267177245    3.242211200376    0.000000000000
 H    6.445703421898    3.436727493000    0.000000000000
 H    4.894576266100    3.660678847828   -0.896412193030
 H    4.894576266100    3.660678847828    0.896412193030
 C    3.953495214398   -0.161298547159    0.000000000000
 H    2.927113529769   -0.538531575351    0.000000000000
 H    4.485492592938   -0.528501837927   -0.886992973465
 H    4.485492592938   -0.528501837927    0.886992973465
