23

 C   -5.847393885300   -1.153180887426    0.000000000000
 C   -5.864553885300   -2.658640887426    0.000000000000
 O   -7.141013885300   -3.112010887426    0.000000000000
 C   -7.263163885300   -4.556690887426    0.000000000000
 O   -4.884383885300   -3.390070887426    0.000000000000
 H   -4.821003885300   -0.775940887426    0.000000000000
 H   -6.379383885300   -0.785970887426    0.886990000000
 H   -6.379383885300   -0.785970887426   -0.886990000000
 H   -8.339603885300   -4.751200887426    0.000000000000
 H   -6.788473885300   -4.975150887426    0.896410000000
 H   -6.788473885300   -4.975150887426   -0.896410000000
CS    0.953906114700    0.662069112574    0.000000000000
 O    3.172001532975    2.201566665489    0.000000000000
 C    4.152169498004    1.470146608046    0.000000000000
 O    5.428629192668    1.923509182922    0.000000000000
 C    5.550782362688    3.368194141193    0.000000000000
 H    6.627218607341    3.562710433817    0.000000000000
 H    5.076091451544    3.786661788645   -0.896412193030
 H    5.076091451544    3.786661788645    0.896412193030
 C    4.135010399841   -0.035315606342    0.000000000000
 H    3.108628715212   -0.412548634534    0.000000000000
 H    4.667007778382   -0.402518897110   -0.886992973465
 H    4.667007778382   -0.402518897110    0.886992973465
