23

 C   -5.869040505644   -1.168205001706    0.000000000000
 C   -5.886200505644   -2.673665001706    0.000000000000
 O   -7.162660505644   -3.127035001706    0.000000000000
 C   -7.284810505644   -4.571715001706    0.000000000000
 O   -4.906030505644   -3.405095001706    0.000000000000
 H   -4.842650505644   -0.790965001706    0.000000000000
 H   -6.401030505644   -0.800995001706    0.886990000000
 H   -6.401030505644   -0.800995001706   -0.886990000000
 H   -8.361250505644   -4.766225001706    0.000000000000
 H   -6.810120505644   -4.990175001706    0.896410000000
 H   -6.810120505644   -4.990175001706   -0.896410000000
CS    0.932259494356    0.647044998294    0.000000000000
 O    3.232506594789    2.243560979094    0.000000000000
 C    4.212674559818    1.512140921651    0.000000000000
 O    5.489134254482    1.965503496527    0.000000000000
 C    5.611287424502    3.410188454798    0.000000000000
 H    6.687723669156    3.604704747423    0.000000000000
 H    5.136596513358    3.828656102251   -0.896412193030
 H    5.136596513358    3.828656102251    0.896412193030
 C    4.195515461655    0.006678707263    0.000000000000
 H    3.169133777027   -0.370554320929    0.000000000000
 H    4.727512840196   -0.360524583504   -0.886992973465
 H    4.727512840196   -0.360524583504    0.886992973465
