23

 C   -5.912333746332   -1.198253230266    0.000000000000
 C   -5.929493746332   -2.703713230266    0.000000000000
 O   -7.205953746332   -3.157083230266    0.000000000000
 C   -7.328103746332   -4.601763230266    0.000000000000
 O   -4.949323746332   -3.435143230266    0.000000000000
 H   -4.885943746332   -0.821013230266    0.000000000000
 H   -6.444323746332   -0.831043230266    0.886990000000
 H   -6.444323746332   -0.831043230266   -0.886990000000
 H   -8.404543746332   -4.796273230266    0.000000000000
 H   -6.853413746332   -5.020223230266    0.896410000000
 H   -6.853413746332   -5.020223230266   -0.896410000000
CS    0.888966253668    0.616996769734    0.000000000000
 O    3.353516718418    2.327549606306    0.000000000000
 C    4.333684683447    1.596129548863    0.000000000000
 O    5.610144378111    2.049492123738    0.000000000000
 C    5.732297548131    3.494177082009    0.000000000000
 H    6.808733792784    3.688693374634    0.000000000000
 H    5.257606636987    3.912644729462   -0.896412193030
 H    5.257606636987    3.912644729462    0.896412193030
 C    4.316525585284    0.090667334474    0.000000000000
 H    3.290143900656   -0.286565693718    0.000000000000
 H    4.848522963825   -0.276535956293   -0.886992973465
 H    4.848522963825   -0.276535956293    0.886992973465
