23

 C   -5.955626987019   -1.228301458826    0.000000000000
 C   -5.972786987019   -2.733761458826    0.000000000000
 O   -7.249246987019   -3.187131458826    0.000000000000
 C   -7.371396987019   -4.631811458826    0.000000000000
 O   -4.992616987019   -3.465191458826    0.000000000000
 H   -4.929236987019   -0.851061458826    0.000000000000
 H   -6.487616987019   -0.861091458826    0.886990000000
 H   -6.487616987019   -0.861091458826   -0.886990000000
 H   -8.447836987019   -4.826321458826    0.000000000000
 H   -6.896706987019   -5.050271458826    0.896410000000
 H   -6.896706987019   -5.050271458826   -0.896410000000
CS    0.845673012981    0.586948541174    0.000000000000
 O    3.474526842046    2.411538233517    0.000000000000
 C    4.454694807076    1.680118176074    0.000000000000
 O    5.731154501740    2.133480750950    0.000000000000
 C    5.853307671760    3.578165709221    0.000000000000
 H    6.929743916413    3.772682001845    0.000000000000
 H    5.378616760615    3.996633356673   -0.896412193030
 H    5.378616760615    3.996633356673    0.896412193030
 C    4.437535708913    0.174655961686    0.000000000000
 H    3.411154024284   -0.202577066506    0.000000000000
 H    4.969533087453   -0.192547329082   -0.886992973465
 H    4.969533087453   -0.192547329082    0.886992973465
