23

 C   -5.998920227707   -1.258349687387    0.000000000000
 C   -6.016080227707   -2.763809687387    0.000000000000
 O   -7.292540227707   -3.217179687387    0.000000000000
 C   -7.414690227707   -4.661859687387    0.000000000000
 O   -5.035910227707   -3.495239687387    0.000000000000
 H   -4.972530227707   -0.881109687387    0.000000000000
 H   -6.530910227707   -0.891139687387    0.886990000000
 H   -6.530910227707   -0.891139687387   -0.886990000000
 H   -8.491130227707   -4.856369687387    0.000000000000
 H   -6.940000227707   -5.080319687387    0.896410000000
 H   -6.940000227707   -5.080319687387   -0.896410000000
CS    0.802379772293    0.556900312613    0.000000000000
 O    3.595536965675    2.495526860728    0.000000000000
 C    4.575704930705    1.764106803285    0.000000000000
 O    5.852164625369    2.217469378161    0.000000000000
 C    5.974317795389    3.662154336432    0.000000000000
 H    7.050754040042    3.856670629056    0.000000000000
 H    5.499626884244    4.080621983884   -0.896412193030
 H    5.499626884244    4.080621983884    0.896412193030
 C    4.558545832542    0.258644588897    0.000000000000
 H    3.532164147913   -0.118588439295    0.000000000000
 H    5.090543211082   -0.108558701871   -0.886992973465
 H    5.090543211082   -0.108558701871    0.886992973465
