23

 C   -6.063860088739   -1.303422030227    0.000000000000
 C   -6.081020088739   -2.808882030227    0.000000000000
 O   -7.357480088739   -3.262252030227    0.000000000000
 C   -7.479630088739   -4.706932030227    0.000000000000
 O   -5.100850088739   -3.540312030227    0.000000000000
 H   -5.037470088739   -0.926182030227    0.000000000000
 H   -6.595850088739   -0.936212030227    0.886990000000
 H   -6.595850088739   -0.936212030227   -0.886990000000
 H   -8.556070088739   -4.901442030227    0.000000000000
 H   -7.004940088739   -5.125392030227    0.896410000000
 H   -7.004940088739   -5.125392030227   -0.896410000000
CS    0.737439911261    0.511827969773    0.000000000000
 O    3.777052151118    2.621509801545    0.000000000000
 C    4.757220116148    1.890089744102    0.000000000000
 O    6.033679810812    2.343452318978    0.000000000000
 C    6.155832980832    3.788137277249    0.000000000000
 H    7.232269225485    3.982653569873    0.000000000000
 H    5.681142069687    4.206604924701   -0.896412193030
 H    5.681142069687    4.206604924701    0.896412193030
 C    4.740061017985    0.384627529714    0.000000000000
 H    3.713679333356    0.007394501522    0.000000000000
 H    5.272058396525    0.017424238946   -0.886992973465
 H    5.272058396525    0.017424238946    0.886992973465
