23

 C   -6.215386431147   -1.408590830188    0.000000000000
 C   -6.232546431147   -2.914050830188    0.000000000000
 O   -7.509006431147   -3.367420830188    0.000000000000
 C   -7.631156431147   -4.812100830188    0.000000000000
 O   -5.252376431147   -3.645480830188    0.000000000000
 H   -5.188996431147   -1.031350830188    0.000000000000
 H   -6.747376431147   -1.041380830188    0.886990000000
 H   -6.747376431147   -1.041380830188   -0.886990000000
 H   -8.707596431147   -5.006610830188    0.000000000000
 H   -7.156466431147   -5.230560830188    0.896410000000
 H   -7.156466431147   -5.230560830188   -0.896410000000
CS    0.585913568853    0.406659169812    0.000000000000
 O    4.200587583819    2.915469996784    0.000000000000
 C    5.180755548848    2.184049939341    0.000000000000
 O    6.457215243512    2.637412514217    0.000000000000
 C    6.579368413532    4.082097472488    0.000000000000
 H    7.655804658186    4.276613765112    0.000000000000
 H    6.104677502388    4.500565119941   -0.896412193030
 H    6.104677502388    4.500565119941    0.896412193030
 C    5.163596450685    0.678587724953    0.000000000000
 H    4.137214766057    0.301354696761    0.000000000000
 H    5.695593829226    0.311384434185   -0.886992973465
 H    5.695593829226    0.311384434185    0.886992973465
