23

 C   -6.301972912522   -1.468687287308    0.000000000000
 C   -6.319132912522   -2.974147287308    0.000000000000
 O   -7.595592912522   -3.427517287308    0.000000000000
 C   -7.717742912522   -4.872197287308    0.000000000000
 O   -5.338962912522   -3.705577287308    0.000000000000
 H   -5.275582912522   -1.091447287308    0.000000000000
 H   -6.833962912522   -1.101477287308    0.886990000000
 H   -6.833962912522   -1.101477287308   -0.886990000000
 H   -8.794182912522   -5.066707287308    0.000000000000
 H   -7.243052912522   -5.290657287308    0.896410000000
 H   -7.243052912522   -5.290657287308   -0.896410000000
CS    0.499327087478    0.346562712692    0.000000000000
 O    4.442607831077    3.083447251207    0.000000000000
 C    5.422775796106    2.352027193764    0.000000000000
 O    6.699235490770    2.805389768640    0.000000000000
 C    6.821388660790    4.250074726910    0.000000000000
 H    7.897824905443    4.444591019535    0.000000000000
 H    6.346697749645    4.668542374363   -0.896412193030
 H    6.346697749645    4.668542374363    0.896412193030
 C    5.405616697943    0.846564979375    0.000000000000
 H    4.379235013314    0.469331951183    0.000000000000
 H    5.937614076483    0.479361688608   -0.886992973465
 H    5.937614076483    0.479361688608    0.886992973465
