23

 C   -6.431852634586   -1.558831972989    0.000000000000
 C   -6.449012634586   -3.064291972989    0.000000000000
 O   -7.725472634586   -3.517661972989    0.000000000000
 C   -7.847622634586   -4.962341972989    0.000000000000
 O   -5.468842634586   -3.795721972989    0.000000000000
 H   -5.405462634586   -1.181591972989    0.000000000000
 H   -6.963842634586   -1.191621972989    0.886990000000
 H   -6.963842634586   -1.191621972989   -0.886990000000
 H   -8.924062634586   -5.156851972989    0.000000000000
 H   -7.372932634586   -5.380801972989    0.896410000000
 H   -7.372932634586   -5.380801972989   -0.896410000000
CS    0.369447365414    0.256418027011    0.000000000000
 O    4.805638201963    3.335413132840    0.000000000000
 C    5.785806166992    2.603993075397    0.000000000000
 O    7.062265861656    3.057355650273    0.000000000000
 C    7.184419031676    4.502040608544    0.000000000000
 H    8.260855276329    4.696556901169    0.000000000000
 H    6.709728120532    4.920508255997   -0.896412193030
 H    6.709728120532    4.920508255997    0.896412193030
 C    5.768647068829    1.098530861009    0.000000000000
 H    4.742265384201    0.721297832817    0.000000000000
 H    6.300644447370    0.731327570241   -0.886992973465
 H    6.300644447370    0.731327570241    0.886992973465
