23

 C   -6.453499254930   -1.573856087269    0.000000000000
 C   -6.470659254930   -3.079316087269    0.000000000000
 O   -7.747119254930   -3.532686087269    0.000000000000
 C   -7.869269254930   -4.977366087269    0.000000000000
 O   -5.490489254930   -3.810746087269    0.000000000000
 H   -5.427109254930   -1.196616087269    0.000000000000
 H   -6.985489254930   -1.206646087269    0.886990000000
 H   -6.985489254930   -1.206646087269   -0.886990000000
 H   -8.945709254930   -5.171876087269    0.000000000000
 H   -7.394579254930   -5.395826087269    0.896410000000
 H   -7.394579254930   -5.395826087269   -0.896410000000
CS    0.347800745070    0.241393912731    0.000000000000
 O    4.866143263777    3.377407446446    0.000000000000
 C    5.846311228807    2.645987389003    0.000000000000
 O    7.122770923471    3.099349963879    0.000000000000
 C    7.244924093490    4.544034922150    0.000000000000
 H    8.321360338144    4.738551214774    0.000000000000
 H    6.770233182346    4.962502569602   -0.896412193030
 H    6.770233182346    4.962502569602    0.896412193030
 C    5.829152130644    1.140525174615    0.000000000000
 H    4.802770446015    0.763292146423    0.000000000000
 H    6.361149509184    0.773321883847   -0.886992973465
 H    6.361149509184    0.773321883847    0.886992973465
