23

 C   -6.475145875274   -1.588880201549    0.000000000000
 C   -6.492305875274   -3.094340201549    0.000000000000
 O   -7.768765875274   -3.547710201549    0.000000000000
 C   -7.890915875274   -4.992390201549    0.000000000000
 O   -5.512135875274   -3.825770201549    0.000000000000
 H   -5.448755875274   -1.211640201549    0.000000000000
 H   -7.007135875274   -1.221670201549    0.886990000000
 H   -7.007135875274   -1.221670201549   -0.886990000000
 H   -8.967355875274   -5.186900201549    0.000000000000
 H   -7.416225875274   -5.410850201549    0.896410000000
 H   -7.416225875274   -5.410850201549   -0.896410000000
CS    0.326154124726    0.226369798451    0.000000000000
 O    4.926648325592    3.419401760052    0.000000000000
 C    5.906816290621    2.687981702608    0.000000000000
 O    7.183275985285    3.141344277484    0.000000000000
 C    7.305429155305    4.586029235755    0.000000000000
 H    8.381865399958    4.780545528380    0.000000000000
 H    6.830738244160    5.004496883208   -0.896412193030
 H    6.830738244160    5.004496883208    0.896412193030
 C    5.889657192458    1.182519488220    0.000000000000
 H    4.863275507829    0.805286460028    0.000000000000
 H    6.421654570998    0.815316197453   -0.886992973465
 H    6.421654570998    0.815316197453    0.886992973465
