23

 C   -6.496792495618   -1.603904315829    0.000000000000
 C   -6.513952495618   -3.109364315829    0.000000000000
 O   -7.790412495618   -3.562734315829    0.000000000000
 C   -7.912562495618   -5.007414315829    0.000000000000
 O   -5.533782495618   -3.840794315829    0.000000000000
 H   -5.470402495618   -1.226664315829    0.000000000000
 H   -7.028782495618   -1.236694315829    0.886990000000
 H   -7.028782495618   -1.236694315829   -0.886990000000
 H   -8.989002495618   -5.201924315829    0.000000000000
 H   -7.437872495618   -5.425874315829    0.896410000000
 H   -7.437872495618   -5.425874315829   -0.896410000000
CS    0.304507504382    0.211345684171    0.000000000000
 O    4.987153387406    3.461396073657    0.000000000000
 C    5.967321352435    2.729976016214    0.000000000000
 O    7.243781047099    3.183338591090    0.000000000000
 C    7.365934217119    4.628023549361    0.000000000000
 H    8.442370461773    4.822539841985    0.000000000000
 H    6.891243305975    5.046491196813   -0.896412193030
 H    6.891243305975    5.046491196813    0.896412193030
 C    5.950162254272    1.224513801826    0.000000000000
 H    4.923780569644    0.847280773634    0.000000000000
 H    6.482159632813    0.857310511058   -0.886992973465
 H    6.482159632813    0.857310511058    0.886992973465
