23

 C   -6.518439115962   -1.618928430109    0.000000000000
 C   -6.535599115962   -3.124388430109    0.000000000000
 O   -7.812059115962   -3.577758430109    0.000000000000
 C   -7.934209115962   -5.022438430109    0.000000000000
 O   -5.555429115962   -3.855818430109    0.000000000000
 H   -5.492049115962   -1.241688430109    0.000000000000
 H   -7.050429115962   -1.251718430109    0.886990000000
 H   -7.050429115962   -1.251718430109   -0.886990000000
 H   -9.010649115962   -5.216948430109    0.000000000000
 H   -7.459519115962   -5.440898430109    0.896410000000
 H   -7.459519115962   -5.440898430109   -0.896410000000
CS    0.282860884038    0.196321569891    0.000000000000
 O    5.047658449220    3.503390387263    0.000000000000
 C    6.027826414250    2.771970329820    0.000000000000
 O    7.304286108914    3.225332904696    0.000000000000
 C    7.426439278934    4.670017862966    0.000000000000
 H    8.502875523587    4.864534155591    0.000000000000
 H    6.951748367789    5.088485510419   -0.896412193030
 H    6.951748367789    5.088485510419    0.896412193030
 C    6.010667316087    1.266508115432    0.000000000000
 H    4.984285631458    0.889275087240    0.000000000000
 H    6.542664694627    0.899304824664   -0.886992973465
 H    6.542664694627    0.899304824664    0.886992973465
