23

 C   -6.540085736306   -1.633952544390    0.000000000000
 C   -6.557245736306   -3.139412544390    0.000000000000
 O   -7.833705736306   -3.592782544390    0.000000000000
 C   -7.955855736306   -5.037462544390    0.000000000000
 O   -5.577075736306   -3.870842544390    0.000000000000
 H   -5.513695736306   -1.256712544390    0.000000000000
 H   -7.072075736306   -1.266742544390    0.886990000000
 H   -7.072075736306   -1.266742544390   -0.886990000000
 H   -9.032295736306   -5.231972544390    0.000000000000
 H   -7.481165736306   -5.455922544390    0.896410000000
 H   -7.481165736306   -5.455922544390   -0.896410000000
CS    0.261214263694    0.181297455610    0.000000000000
 O    5.108163511035    3.545384700868    0.000000000000
 C    6.088331476064    2.813964643425    0.000000000000
 O    7.364791170728    3.267327218301    0.000000000000
 C    7.486944340748    4.712012176572    0.000000000000
 H    8.563380585401    4.906528469197    0.000000000000
 H    7.012253429604    5.130479824025   -0.896412193030
 H    7.012253429604    5.130479824025    0.896412193030
 C    6.071172377901    1.308502429037    0.000000000000
 H    5.044790693272    0.931269400845    0.000000000000
 H    6.603169756442    0.941299138269   -0.886992973465
 H    6.603169756442    0.941299138269    0.886992973465
