23

 C   -6.583378976993   -1.664000772950    0.000000000000
 C   -6.600538976993   -3.169460772950    0.000000000000
 O   -7.876998976993   -3.622830772950    0.000000000000
 C   -7.999148976993   -5.067510772950    0.000000000000
 O   -5.620368976993   -3.900890772950    0.000000000000
 H   -5.556988976993   -1.286760772950    0.000000000000
 H   -7.115368976993   -1.296790772950    0.886990000000
 H   -7.115368976993   -1.296790772950   -0.886990000000
 H   -9.075588976993   -5.262020772950    0.000000000000
 H   -7.524458976993   -5.485970772950    0.896410000000
 H   -7.524458976993   -5.485970772950   -0.896410000000
CS    0.217921023007    0.151249227050    0.000000000000
 O    5.229173634663    3.629373328080    0.000000000000
 C    6.209341599693    2.897953270636    0.000000000000
 O    7.485801294357    3.351315845512    0.000000000000
 C    7.607954464377    4.796000803783    0.000000000000
 H    8.684390709030    4.990517096408    0.000000000000
 H    7.133263553232    5.214468451236   -0.896412193030
 H    7.133263553232    5.214468451236    0.896412193030
 C    6.192182501530    1.392491056248    0.000000000000
 H    5.165800816901    1.015258028056    0.000000000000
 H    6.724179880070    1.025287765481   -0.886992973465
 H    6.724179880070    1.025287765481    0.886992973465
