23

 C   -6.691612078713   -1.739121344350    0.000000000000
 C   -6.708772078713   -3.244581344350    0.000000000000
 O   -7.985232078713   -3.697951344350    0.000000000000
 C   -8.107382078713   -5.142631344350    0.000000000000
 O   -5.728602078713   -3.976011344350    0.000000000000
 H   -5.665222078713   -1.361881344350    0.000000000000
 H   -7.223602078713   -1.371911344350    0.886990000000
 H   -7.223602078713   -1.371911344350   -0.886990000000
 H   -9.183822078713   -5.337141344350    0.000000000000
 H   -7.632692078713   -5.561091344350    0.896410000000
 H   -7.632692078713   -5.561091344350   -0.896410000000
CS    0.109687921287    0.076128655650    0.000000000000
 O    5.531698943735    3.839344896108    0.000000000000
 C    6.511866908765    3.107924838665    0.000000000000
 O    7.788326603429    3.561287413541    0.000000000000
 C    7.910479773449    5.005972371811    0.000000000000
 H    8.986916018102    5.200488664436    0.000000000000
 H    7.435788862304    5.424440019264   -0.896412193030
 H    7.435788862304    5.424440019264    0.896412193030
 C    6.494707810602    1.602462624276    0.000000000000
 H    5.468326125973    1.225229596084    0.000000000000
 H    7.026705189142    1.235259333509   -0.886992973465
 H    7.026705189142    1.235259333509    0.886992973465
