23

 C   -6.713258699057   -1.754145458631    0.000000000000
 C   -6.730418699057   -3.259605458631    0.000000000000
 O   -8.006878699057   -3.712975458631    0.000000000000
 C   -8.129028699057   -5.157655458631    0.000000000000
 O   -5.750248699057   -3.991035458631    0.000000000000
 H   -5.686868699057   -1.376905458631    0.000000000000
 H   -7.245248699057   -1.386935458631    0.886990000000
 H   -7.245248699057   -1.386935458631   -0.886990000000
 H   -9.205468699057   -5.352165458631    0.000000000000
 H   -7.654338699057   -5.576115458631    0.896410000000
 H   -7.654338699057   -5.576115458631   -0.896410000000
CS    0.088041300943    0.061104541369    0.000000000000
 O    5.592204005550    3.881339209713    0.000000000000
 C    6.572371970579    3.149919152270    0.000000000000
 O    7.848831665243    3.603281727146    0.000000000000
 C    7.970984835263    5.047966685417    0.000000000000
 H    9.047421079916    5.242482978042    0.000000000000
 H    7.496293924119    5.466434332870   -0.896412193030
 H    7.496293924119    5.466434332870    0.896412193030
 C    6.555212872416    1.644456937882    0.000000000000
 H    5.528831187787    1.267223909690    0.000000000000
 H    7.087210250957    1.277253647114   -0.886992973465
 H    7.087210250957    1.277253647114    0.886992973465
