23

 C   -6.734905319401   -1.769169572911    0.000000000000
 C   -6.752065319401   -3.274629572911    0.000000000000
 O   -8.028525319401   -3.727999572911    0.000000000000
 C   -8.150675319401   -5.172679572911    0.000000000000
 O   -5.771895319401   -4.006059572911    0.000000000000
 H   -5.708515319401   -1.391929572911    0.000000000000
 H   -7.266895319401   -1.401959572911    0.886990000000
 H   -7.266895319401   -1.401959572911   -0.886990000000
 H   -9.227115319401   -5.367189572911    0.000000000000
 H   -7.675985319401   -5.591139572911    0.896410000000
 H   -7.675985319401   -5.591139572911   -0.896410000000
CS    0.066394680599    0.046080427089    0.000000000000
 O    5.652709067364    3.923333523319    0.000000000000
 C    6.632877032393    3.191913465876    0.000000000000
 O    7.909336727057    3.645276040752    0.000000000000
 C    8.031489897077    5.089960999023    0.000000000000
 H    9.107926141731    5.284477291647    0.000000000000
 H    7.556798985933    5.508428646475   -0.896412193030
 H    7.556798985933    5.508428646475    0.896412193030
 C    6.615717934230    1.686451251488    0.000000000000
 H    5.589336249602    1.309218223296    0.000000000000
 H    7.147715312771    1.319247960720   -0.886992973465
 H    7.147715312771    1.319247960720    0.886992973465
