23

 C   -6.756551939745   -1.784193687191    0.000000000000
 C   -6.773711939745   -3.289653687191    0.000000000000
 O   -8.050171939745   -3.743023687191    0.000000000000
 C   -8.172321939745   -5.187703687191    0.000000000000
 O   -5.793541939745   -4.021083687191    0.000000000000
 H   -5.730161939745   -1.406953687191    0.000000000000
 H   -7.288541939745   -1.416983687191    0.886990000000
 H   -7.288541939745   -1.416983687191   -0.886990000000
 H   -9.248761939745   -5.382213687191    0.000000000000
 H   -7.697631939745   -5.606163687191    0.896410000000
 H   -7.697631939745   -5.606163687191   -0.896410000000
CS    0.044748060255    0.031056312809    0.000000000000
 O    5.713214129178    3.965327836925    0.000000000000
 C    6.693382094208    3.233907779481    0.000000000000
 O    7.969841788872    3.687270354357    0.000000000000
 C    8.091994958892    5.131955312628    0.000000000000
 H    9.168431203545    5.326471605253    0.000000000000
 H    7.617304047747    5.550422960081   -0.896412193030
 H    7.617304047747    5.550422960081    0.896412193030
 C    6.676222996045    1.728445565093    0.000000000000
 H    5.649841311416    1.351212536901    0.000000000000
 H    7.208220374585    1.361242274326   -0.886992973465
 H    7.208220374585    1.361242274326    0.886992973465
