23

 C   -6.821491800777   -1.829266030031    0.000000000000
 C   -6.838651800777   -3.334726030031    0.000000000000
 O   -8.115111800777   -3.788096030031    0.000000000000
 C   -8.237261800777   -5.232776030031    0.000000000000
 O   -5.858481800777   -4.066156030031    0.000000000000
 H   -5.795101800777   -1.452026030031    0.000000000000
 H   -7.353481800777   -1.462056030031    0.886990000000
 H   -7.353481800777   -1.462056030031   -0.886990000000
 H   -9.313701800777   -5.427286030031    0.000000000000
 H   -7.762571800777   -5.651236030031    0.896410000000
 H   -7.762571800777   -5.651236030031   -0.896410000000
CS   -0.020191800777   -0.014016030031    0.000000000000
 O    5.894729314622    4.091310777741    0.000000000000
 C    6.874897279651    3.359890720298    0.000000000000
 O    8.151356974315    3.813253295174    0.000000000000
 C    8.273510144335    5.257938253445    0.000000000000
 H    9.349946388988    5.452454546070    0.000000000000
 H    7.798819233190    5.676405900898   -0.896412193030
 H    7.798819233190    5.676405900898    0.896412193030
 C    6.857738181488    1.854428505910    0.000000000000
 H    5.831356496859    1.477195477718    0.000000000000
 H    7.389735560028    1.487225215142   -0.886992973465
 H    7.389735560028    1.487225215142    0.886992973465
