23

 C   -6.864785041465   -1.859314258591    0.000000000000
 C   -6.881945041465   -3.364774258591    0.000000000000
 O   -8.158405041465   -3.818144258591    0.000000000000
 C   -8.280555041465   -5.262824258591    0.000000000000
 O   -5.901775041465   -4.096204258591    0.000000000000
 H   -5.838395041465   -1.482074258591    0.000000000000
 H   -7.396775041465   -1.492104258591    0.886990000000
 H   -7.396775041465   -1.492104258591   -0.886990000000
 H   -9.356995041465   -5.457334258591    0.000000000000
 H   -7.805865041465   -5.681284258591    0.896410000000
 H   -7.805865041465   -5.681284258591   -0.896410000000
CS   -0.063485041465   -0.044064258591    0.000000000000
 O    6.015739438250    4.175299404953    0.000000000000
 C    6.995907403280    3.443879347509    0.000000000000
 O    8.272367097944    3.897241922385    0.000000000000
 C    8.394520267964    5.341926880656    0.000000000000
 H    9.470956512617    5.536443173281    0.000000000000
 H    7.919829356819    5.760394528109   -0.896412193030
 H    7.919829356819    5.760394528109    0.896412193030
 C    6.978748305117    1.938417133121    0.000000000000
 H    5.952366620488    1.561184104929    0.000000000000
 H    7.510745683657    1.571213842354   -0.886992973465
 H    7.510745683657    1.571213842354    0.886992973465
