23

 C   -6.886431661809   -1.874338372871    0.000000000000
 C   -6.903591661809   -3.379798372871    0.000000000000
 O   -8.180051661809   -3.833168372871    0.000000000000
 C   -8.302201661809   -5.277848372871    0.000000000000
 O   -5.923421661809   -4.111228372871    0.000000000000
 H   -5.860041661809   -1.497098372871    0.000000000000
 H   -7.418421661809   -1.507128372871    0.886990000000
 H   -7.418421661809   -1.507128372871   -0.886990000000
 H   -9.378641661809   -5.472358372871    0.000000000000
 H   -7.827511661809   -5.696308372871    0.896410000000
 H   -7.827511661809   -5.696308372871   -0.896410000000
CS   -0.085131661809   -0.059088372871    0.000000000000
 O    6.076244500065    4.217293718558    0.000000000000
 C    7.056412465094    3.485873661115    0.000000000000
 O    8.332872159758    3.939236235991    0.000000000000
 C    8.455025329778    5.383921194262    0.000000000000
 H    9.531461574431    5.578437486886    0.000000000000
 H    7.980334418634    5.802388841714   -0.896412193030
 H    7.980334418634    5.802388841714    0.896412193030
 C    7.039253366931    1.980411446727    0.000000000000
 H    6.012871682303    1.603178418535    0.000000000000
 H    7.571250745472    1.613208155959   -0.886992973465
 H    7.571250745472    1.613208155959    0.886992973465
