23

 C   -6.908078282152   -1.889362487152    0.000000000000
 C   -6.925238282152   -3.394822487152    0.000000000000
 O   -8.201698282152   -3.848192487152    0.000000000000
 C   -8.323848282152   -5.292872487152    0.000000000000
 O   -5.945068282152   -4.126252487152    0.000000000000
 H   -5.881688282152   -1.512122487152    0.000000000000
 H   -7.440068282152   -1.522152487152    0.886990000000
 H   -7.440068282152   -1.522152487152   -0.886990000000
 H   -9.400288282152   -5.487382487152    0.000000000000
 H   -7.849158282152   -5.711332487152    0.896410000000
 H   -7.849158282152   -5.711332487152   -0.896410000000
CS   -0.106778282152   -0.074112487152    0.000000000000
 O    6.136749561879    4.259288032164    0.000000000000
 C    7.116917526908    3.527867974721    0.000000000000
 O    8.393377221572    3.981230549597    0.000000000000
 C    8.515530391592    5.425915507867    0.000000000000
 H    9.591966636246    5.620431800492    0.000000000000
 H    8.040839480448    5.844383155320   -0.896412193030
 H    8.040839480448    5.844383155320    0.896412193030
 C    7.099758428745    2.022405760333    0.000000000000
 H    6.073376744117    1.645172732141    0.000000000000
 H    7.631755807286    1.655202469565   -0.886992973465
 H    7.631755807286    1.655202469565    0.886992973465
