23

 C   -6.973018143184   -1.934434829992    0.000000000000
 C   -6.990178143184   -3.439894829992    0.000000000000
 O   -8.266638143184   -3.893264829992    0.000000000000
 C   -8.388788143184   -5.337944829992    0.000000000000
 O   -6.010008143184   -4.171324829992    0.000000000000
 H   -5.946628143184   -1.557194829992    0.000000000000
 H   -7.505008143184   -1.567224829992    0.886990000000
 H   -7.505008143184   -1.567224829992   -0.886990000000
 H   -9.465228143184   -5.532454829992    0.000000000000
 H   -7.914098143184   -5.756404829992    0.896410000000
 H   -7.914098143184   -5.756404829992   -0.896410000000
CS   -0.171718143184   -0.119184829992    0.000000000000
 O    6.318264747322    4.385270972981    0.000000000000
 C    7.298432712352    3.653850915537    0.000000000000
 O    8.574892407016    4.107213490413    0.000000000000
 C    8.697045577035    5.551898448684    0.000000000000
 H    9.773481821689    5.746414741309    0.000000000000
 H    8.222354665891    5.970366096137   -0.896412193030
 H    8.222354665891    5.970366096137    0.896412193030
 C    7.281273614189    2.148388701149    0.000000000000
 H    6.254891929560    1.771155672957    0.000000000000
 H    7.813270992729    1.781185410382   -0.886992973465
 H    7.813270992729    1.781185410382    0.886992973465
