23

 C   -6.994664763528   -1.949458944272    0.000000000000
 C   -7.011824763528   -3.454918944272    0.000000000000
 O   -8.288284763528   -3.908288944272    0.000000000000
 C   -8.410434763528   -5.352968944272    0.000000000000
 O   -6.031654763528   -4.186348944272    0.000000000000
 H   -5.968274763528   -1.572218944272    0.000000000000
 H   -7.526654763528   -1.582248944272    0.886990000000
 H   -7.526654763528   -1.582248944272   -0.886990000000
 H   -9.486874763528   -5.547478944272    0.000000000000
 H   -7.935744763528   -5.771428944272    0.896410000000
 H   -7.935744763528   -5.771428944272   -0.896410000000
CS   -0.193364763528   -0.134208944272    0.000000000000
 O    6.378769809137    4.427265286586    0.000000000000
 C    7.358937774166    3.695845229143    0.000000000000
 O    8.635397468830    4.149207804019    0.000000000000
 C    8.757550638850    5.593892762290    0.000000000000
 H    9.833986883503    5.788409054914    0.000000000000
 H    8.282859727705    6.012360409743   -0.896412193030
 H    8.282859727705    6.012360409743    0.896412193030
 C    7.341778676003    2.190383014755    0.000000000000
 H    6.315396991374    1.813149986563    0.000000000000
 H    7.873776054543    1.823179723987   -0.886992973465
 H    7.873776054543    1.823179723987    0.886992973465
