23

 C   -7.016311383872   -1.964483058552    0.000000000000
 C   -7.033471383872   -3.469943058552    0.000000000000
 O   -8.309931383872   -3.923313058552    0.000000000000
 C   -8.432081383872   -5.367993058552    0.000000000000
 O   -6.053301383872   -4.201373058552    0.000000000000
 H   -5.989921383872   -1.587243058552    0.000000000000
 H   -7.548301383872   -1.597273058552    0.886990000000
 H   -7.548301383872   -1.597273058552   -0.886990000000
 H   -9.508521383872   -5.562503058552    0.000000000000
 H   -7.957391383872   -5.786453058552    0.896410000000
 H   -7.957391383872   -5.786453058552   -0.896410000000
CS   -0.215011383872   -0.149233058552    0.000000000000
 O    6.439274870951    4.469259600192    0.000000000000
 C    7.419442835980    3.737839542749    0.000000000000
 O    8.695902530644    4.191202117625    0.000000000000
 C    8.818055700664    5.635887075896    0.000000000000
 H    9.894491945318    5.830403368520    0.000000000000
 H    8.343364789520    6.054354723348   -0.896412193030
 H    8.343364789520    6.054354723348    0.896412193030
 C    7.402283737817    2.232377328361    0.000000000000
 H    6.375902053189    1.855144300169    0.000000000000
 H    7.934281116358    1.865174037593   -0.886992973465
 H    7.934281116358    1.865174037593    0.886992973465
