23

 C   -7.059604624560   -1.994531287112    0.000000000000
 C   -7.076764624560   -3.499991287112    0.000000000000
 O   -8.353224624560   -3.953361287112    0.000000000000
 C   -8.475374624560   -5.398041287112    0.000000000000
 O   -6.096594624560   -4.231421287112    0.000000000000
 H   -6.033214624560   -1.617291287112    0.000000000000
 H   -7.591594624560   -1.627321287112    0.886990000000
 H   -7.591594624560   -1.627321287112   -0.886990000000
 H   -9.551814624560   -5.592551287112    0.000000000000
 H   -8.000684624560   -5.816501287112    0.896410000000
 H   -8.000684624560   -5.816501287112   -0.896410000000
CS   -0.258304624560   -0.179281287112    0.000000000000
 O    6.560284994580    4.553248227403    0.000000000000
 C    7.540452959609    3.821828169960    0.000000000000
 O    8.816912654273    4.275190744836    0.000000000000
 C    8.939065824293    5.719875703107    0.000000000000
 H   10.015502068946    5.914391995731    0.000000000000
 H    8.464374913149    6.138343350559   -0.896412193030
 H    8.464374913149    6.138343350559    0.896412193030
 C    7.523293861446    2.316365955572    0.000000000000
 H    6.496912176818    1.939132927380    0.000000000000
 H    8.055291239987    1.949162664804   -0.886992973465
 H    8.055291239987    1.949162664804    0.886992973465
