23

 C   -7.124544485592   -2.039603629953    0.000000000000
 C   -7.141704485592   -3.545063629953    0.000000000000
 O   -8.418164485592   -3.998433629953    0.000000000000
 C   -8.540314485592   -5.443113629953    0.000000000000
 O   -6.161534485592   -4.276493629953    0.000000000000
 H   -6.098154485592   -1.662363629953    0.000000000000
 H   -7.656534485592   -1.672393629953    0.886990000000
 H   -7.656534485592   -1.672393629953   -0.886990000000
 H   -9.616754485592   -5.637623629953    0.000000000000
 H   -8.065624485592   -5.861573629953    0.896410000000
 H   -8.065624485592   -5.861573629953   -0.896410000000
CS   -0.323244485592   -0.224353629953    0.000000000000
 O    6.741800180023    4.679231168220    0.000000000000
 C    7.721968145052    3.947811110777    0.000000000000
 O    8.998427839716    4.401173685653    0.000000000000
 C    9.120581009736    5.845858643924    0.000000000000
 H   10.197017254390    6.040374936548    0.000000000000
 H    8.645890098592    6.264326291376   -0.896412193030
 H    8.645890098592    6.264326291376    0.896412193030
 C    7.704809046889    2.442348896389    0.000000000000
 H    6.678427362261    2.065115868197    0.000000000000
 H    8.236806425430    2.075145605621   -0.886992973465
 H    8.236806425430    2.075145605621    0.886992973465
