23

 C   -7.189484346624   -2.084675972793    0.000000000000
 C   -7.206644346624   -3.590135972793    0.000000000000
 O   -8.483104346624   -4.043505972793    0.000000000000
 C   -8.605254346624   -5.488185972793    0.000000000000
 O   -6.226474346624   -4.321565972793    0.000000000000
 H   -6.163094346624   -1.707435972793    0.000000000000
 H   -7.721474346624   -1.717465972793    0.886990000000
 H   -7.721474346624   -1.717465972793   -0.886990000000
 H   -9.681694346624   -5.682695972793    0.000000000000
 H   -8.130564346624   -5.906645972793    0.896410000000
 H   -8.130564346624   -5.906645972793   -0.896410000000
CS   -0.388184346624   -0.269425972793    0.000000000000
 O    6.923315365466    4.805214109037    0.000000000000
 C    7.903483330495    4.073794051594    0.000000000000
 O    9.179943025159    4.527156626470    0.000000000000
 C    9.302096195179    5.971841584740    0.000000000000
 H   10.378532439833    6.166357877365    0.000000000000
 H    8.827405284035    6.390309232193   -0.896412193030
 H    8.827405284035    6.390309232193    0.896412193030
 C    7.886324232332    2.568331837206    0.000000000000
 H    6.859942547704    2.191098809013    0.000000000000
 H    8.418321610873    2.201128546438   -0.886992973465
 H    8.418321610873    2.201128546438    0.886992973465
