23

 C   -7.211130966968   -2.099700087073    0.000000000000
 C   -7.228290966968   -3.605160087073    0.000000000000
 O   -8.504750966968   -4.058530087073    0.000000000000
 C   -8.626900966968   -5.503210087073    0.000000000000
 O   -6.248120966968   -4.336590087073    0.000000000000
 H   -6.184740966968   -1.722460087073    0.000000000000
 H   -7.743120966968   -1.732490087073    0.886990000000
 H   -7.743120966968   -1.732490087073   -0.886990000000
 H   -9.703340966968   -5.697720087073    0.000000000000
 H   -8.152210966968   -5.921670087073    0.896410000000
 H   -8.152210966968   -5.921670087073   -0.896410000000
CS   -0.409830966968   -0.284450087073    0.000000000000
 O    6.983820427280    4.847208422642    0.000000000000
 C    7.963988392310    4.115788365199    0.000000000000
 O    9.240448086974    4.569150940075    0.000000000000
 C    9.362601256994    6.013835898346    0.000000000000
 H   10.439037501647    6.208352190971    0.000000000000
 H    8.887910345849    6.432303545799   -0.896412193030
 H    8.887910345849    6.432303545799    0.896412193030
 C    7.946829294147    2.610326150811    0.000000000000
 H    6.920447609518    2.233093122619    0.000000000000
 H    8.478826672687    2.243122860043   -0.886992973465
 H    8.478826672687    2.243122860043    0.886992973465
