23

 C   -7.297717448343   -2.159796544194    0.000000000000
 C   -7.314877448343   -3.665256544194    0.000000000000
 O   -8.591337448343   -4.118626544194    0.000000000000
 C   -8.713487448343   -5.563306544194    0.000000000000
 O   -6.334707448343   -4.396686544194    0.000000000000
 H   -6.271327448343   -1.782556544194    0.000000000000
 H   -7.829707448343   -1.792586544194    0.886990000000
 H   -7.829707448343   -1.792586544194   -0.886990000000
 H   -9.789927448343   -5.757816544194    0.000000000000
 H   -8.238797448343   -5.981766544194    0.896410000000
 H   -8.238797448343   -5.981766544194   -0.896410000000
CS   -0.496417448343   -0.344546544194    0.000000000000
 O    7.225840674538    5.015185677065    0.000000000000
 C    8.206008639567    4.283765619622    0.000000000000
 O    9.482468334231    4.737128194498    0.000000000000
 C    9.604621504251    6.181813152769    0.000000000000
 H   10.681057748905    6.376329445393    0.000000000000
 H    9.129930593107    6.600280800221   -0.896412193030
 H    9.129930593107    6.600280800221    0.896412193030
 C    8.188849541404    2.778303405234    0.000000000000
 H    7.162467856776    2.401070377042    0.000000000000
 H    8.720846919945    2.411100114466   -0.886992973465
 H    8.720846919945    2.411100114466    0.886992973465
