14

 P    0.035723138653   -0.125131561969   -0.333222493789
 O   -0.551276861347    0.924868438031    0.621777506211
 O   -0.230276861347   -0.077131561969   -1.845222493789
 O    1.698723138653   -0.299131561969   -0.046222493789
 O   -0.279276861347   -1.683131561969    0.258777506211
 C    2.435723138653    0.865868438031   -0.423222493789
 H    2.104723138653    1.748868438031    0.152777506211
 H    2.320723138653    1.076868438031   -1.501222493789
 H    3.495723138653    0.663868438031   -0.203222493789
 C   -1.670276861347   -2.006131561969    0.208777506211
 H   -2.048276861347   -1.979131561969   -0.829222493789
 H   -2.263276861347   -1.307131561969    0.824777506211
 H   -1.780276861347   -3.026131561969    0.608777506211
NA   -0.971672462774    1.676853755746    1.305726057084
