14

 P    0.041660142224   -0.135751415036   -0.342881503007
 O   -0.545339857776    0.914248584964    0.612118496993
 O   -0.224339857776   -0.087751415036   -1.854881503007
 O    1.704660142224   -0.309751415036   -0.055881503007
 O   -0.273339857776   -1.693751415036    0.249118496993
 C    2.441660142224    0.855248584964   -0.432881503007
 H    2.110660142224    1.738248584964    0.143118496993
 H    2.326660142224    1.066248584964   -1.510881503007
 H    3.501660142224    0.653248584964   -0.212881503007
 C   -1.664339857776   -2.016751415036    0.199118496993
 H   -2.042339857776   -1.989751415036   -0.838881503007
 H   -2.257339857776   -1.317751415036    0.815118496993
 H   -1.774339857776   -3.036751415036    0.599118496993
NA   -1.003953241151    1.734596204289    1.358244188855
