14

 P    0.047597145796   -0.146371268102   -0.352540512225
 O   -0.539402854204    0.903628731898    0.602459487775
 O   -0.218402854204   -0.098371268102   -1.864540512225
 O    1.710597145796   -0.320371268102   -0.065540512225
 O   -0.267402854204   -1.704371268102    0.239459487775
 C    2.447597145796    0.844628731898   -0.442540512225
 H    2.116597145796    1.727628731898    0.133459487775
 H    2.332597145796    1.055628731898   -1.520540512225
 H    3.507597145796    0.642628731898   -0.222540512225
 C   -1.658402854204   -2.027371268102    0.189459487775
 H   -2.036402854204   -2.000371268102   -0.848540512225
 H   -2.251402854204   -1.328371268102    0.805459487775
 H   -1.768402854204   -3.047371268102    0.589459487775
NA   -1.036234019527    1.792338652833    1.410762320626
