14

 P    0.053534149368   -0.156991121169   -0.362199521443
 O   -0.533465850632    0.893008878831    0.592800478557
 O   -0.212465850632   -0.108991121169   -1.874199521443
 O    1.716534149368   -0.330991121169   -0.075199521443
 O   -0.261465850632   -1.714991121169    0.229800478557
 C    2.453534149368    0.834008878831   -0.452199521443
 H    2.122534149368    1.717008878831    0.123800478557
 H    2.338534149368    1.045008878831   -1.530199521443
 H    3.513534149368    0.632008878831   -0.232199521443
 C   -1.652465850632   -2.037991121169    0.179800478557
 H   -2.030465850632   -2.010991121169   -0.858199521443
 H   -2.245465850632   -1.338991121169    0.795800478557
 H   -1.762465850632   -3.057991121169    0.579800478557
NA   -1.068514797903    1.850081101377    1.463280452397
