14

 P    0.059471152939   -0.167610974236   -0.371858530661
 O   -0.527528847061    0.882389025764    0.583141469339
 O   -0.206528847061   -0.119610974236   -1.883858530661
 O    1.722471152939   -0.341610974236   -0.084858530661
 O   -0.255528847061   -1.725610974236    0.220141469339
 C    2.459471152939    0.823389025764   -0.461858530661
 H    2.128471152939    1.706389025764    0.114141469339
 H    2.344471152939    1.034389025764   -1.539858530661
 H    3.519471152939    0.621389025764   -0.241858530661
 C   -1.646528847061   -2.048610974236    0.170141469339
 H   -2.024528847061   -2.021610974236   -0.867858530661
 H   -2.239528847061   -1.349610974236    0.786141469339
 H   -1.756528847061   -3.068610974236    0.570141469339
NA   -1.100795576280    1.907823549920    1.515798584167
