14

 P    0.071345160082   -0.188850680369   -0.391176549096
 O   -0.515654839918    0.861149319631    0.563823450904
 O   -0.194654839918   -0.140850680369   -1.903176549096
 O    1.734345160082   -0.362850680369   -0.104176549096
 O   -0.243654839918   -1.746850680369    0.200823450904
 C    2.471345160082    0.802149319631   -0.481176549096
 H    2.140345160082    1.685149319631    0.094823450904
 H    2.356345160082    1.013149319631   -1.559176549096
 H    3.531345160082    0.600149319631   -0.261176549096
 C   -1.634654839918   -2.069850680369    0.150823450904
 H   -2.012654839918   -2.042850680369   -0.887176549096
 H   -2.227654839918   -1.370850680369    0.766823450904
 H   -1.744654839918   -3.089850680369    0.550823450904
NA   -1.165357133032    2.023308447008    1.620834847709
