14

 P    0.089156170797   -0.220710239569   -0.420153576750
 O   -0.497843829203    0.829289760431    0.534846423250
 O   -0.176843829203   -0.172710239569   -1.932153576750
 O    1.752156170797   -0.394710239569   -0.133153576750
 O   -0.225843829203   -1.778710239569    0.171846423250
 C    2.489156170797    0.770289760431   -0.510153576750
 H    2.158156170797    1.653289760431    0.065846423250
 H    2.374156170797    0.981289760431   -1.588153576750
 H    3.549156170797    0.568289760431   -0.290153576750
 C   -1.616843829203   -2.101710239569    0.121846423250
 H   -1.994843829203   -2.074710239569   -0.916153576750
 H   -2.209843829203   -1.402710239569    0.737846423250
 H   -1.726843829203   -3.121710239569    0.521846423250
NA   -1.262199468161    2.196535792639    1.778389243021
