14

 P    0.106967181512   -0.252569798769   -0.449130604403
 O   -0.480032818488    0.797430201231    0.505869395597
 O   -0.159032818488   -0.204569798769   -1.961130604403
 O    1.769967181512   -0.426569798769   -0.162130604403
 O   -0.208032818488   -1.810569798769    0.142869395597
 C    2.506967181512    0.738430201231   -0.539130604403
 H    2.175967181512    1.621430201231    0.036869395597
 H    2.391967181512    0.949430201231   -1.617130604403
 H    3.566967181512    0.536430201231   -0.319130604403
 C   -1.599032818488   -2.133569798769    0.092869395597
 H   -1.977032818488   -2.106569798769   -0.945130604403
 H   -2.192032818488   -1.434569798769    0.708869395597
 H   -1.709032818488   -3.153569798769    0.492869395597
NA   -1.359041803290    2.369763138270    1.935943638333
