14

 P    0.124778192226   -0.284429357969   -0.478107632056
 O   -0.462221807774    0.765570642031    0.476892367944
 O   -0.141221807774   -0.236429357969   -1.990107632056
 O    1.787778192226   -0.458429357969   -0.191107632056
 O   -0.190221807774   -1.842429357969    0.113892367944
 C    2.524778192226    0.706570642031   -0.568107632056
 H    2.193778192226    1.589570642031    0.007892367944
 H    2.409778192226    0.917570642031   -1.646107632056
 H    3.584778192226    0.504570642031   -0.348107632056
 C   -1.581221807774   -2.165429357969    0.063892367944
 H   -1.959221807774   -2.138429357969   -0.974107632056
 H   -2.174221807774   -1.466429357969    0.679892367944
 H   -1.691221807774   -3.185429357969    0.463892367944
NA   -1.455884138419    2.542990483902    2.093498033645
