14

 P    0.130715195798   -0.295049211036   -0.487766641274
 O   -0.456284804202    0.754950788964    0.467233358726
 O   -0.135284804202   -0.247049211036   -1.999766641274
 O    1.793715195798   -0.469049211036   -0.200766641274
 O   -0.184284804202   -1.853049211036    0.104233358726
 C    2.530715195798    0.695950788964   -0.577766641274
 H    2.199715195798    1.578950788964   -0.001766641274
 H    2.415715195798    0.906950788964   -1.655766641274
 H    3.590715195798    0.493950788964   -0.357766641274
 C   -1.575284804202   -2.176049211036    0.054233358726
 H   -1.953284804202   -2.149049211036   -0.983766641274
 H   -2.168284804202   -1.477049211036    0.670233358726
 H   -1.685284804202   -3.196049211036    0.454233358726
NA   -1.488164916796    2.600732932445    2.146016165416
