14

 P    0.148526206513   -0.326908770236   -0.516743668928
 O   -0.438473793487    0.723091229764    0.438256331072
 O   -0.117473793487   -0.278908770236   -2.028743668928
 O    1.811526206513   -0.500908770236   -0.229743668928
 O   -0.166473793487   -1.884908770236    0.075256331072
 C    2.548526206513    0.664091229764   -0.606743668928
 H    2.217526206513    1.547091229764   -0.030743668928
 H    2.433526206513    0.875091229764   -1.684743668928
 H    3.608526206513    0.462091229764   -0.386743668928
 C   -1.557473793487   -2.207908770236    0.025256331072
 H   -1.935473793487   -2.180908770236   -1.012743668928
 H   -2.150473793487   -1.508908770236    0.641256331072
 H   -1.667473793487   -3.227908770236    0.425256331072
NA   -1.585007251925    2.773960278076    2.303570560728
