14

 P    0.166337217227   -0.358768329436   -0.545720696581
 O   -0.420662782773    0.691231670564    0.409279303419
 O   -0.099662782773   -0.310768329436   -2.057720696581
 O    1.829337217227   -0.532768329436   -0.258720696581
 O   -0.148662782773   -1.916768329436    0.046279303419
 C    2.566337217227    0.632231670564   -0.635720696581
 H    2.235337217227    1.515231670564   -0.059720696581
 H    2.451337217227    0.843231670564   -1.713720696581
 H    3.626337217227    0.430231670564   -0.415720696581
 C   -1.539662782773   -2.239768329436   -0.003720696581
 H   -1.917662782773   -2.212768329436   -1.041720696581
 H   -2.132662782773   -1.540768329436    0.612279303419
 H   -1.649662782773   -3.259768329436    0.396279303419
NA   -1.681849587054    2.947187623708    2.461124956040
