14

 P    0.172274220799   -0.369388182503   -0.555379705799
 O   -0.414725779201    0.680611817497    0.399620294201
 O   -0.093725779201   -0.321388182503   -2.067379705799
 O    1.835274220799   -0.543388182503   -0.268379705799
 O   -0.142725779201   -1.927388182503    0.036620294201
 C    2.572274220799    0.621611817497   -0.645379705799
 H    2.241274220799    1.504611817497   -0.069379705799
 H    2.457274220799    0.832611817497   -1.723379705799
 H    3.632274220799    0.419611817497   -0.425379705799
 C   -1.533725779201   -2.250388182503   -0.013379705799
 H   -1.911725779201   -2.223388182503   -1.051379705799
 H   -2.126725779201   -1.551388182503    0.602620294201
 H   -1.643725779201   -3.270388182503    0.386620294201
NA   -1.714130365430    3.004930072251    2.513643087811
