14

 P    0.207896242228   -0.433107300903   -0.613333761106
 O   -0.379103757772    0.616892699097    0.341666238894
 O   -0.058103757772   -0.385107300903   -2.125333761106
 O    1.870896242228   -0.607107300903   -0.326333761106
 O   -0.107103757772   -1.991107300903   -0.021333761106
 C    2.607896242228    0.557892699097   -0.703333761106
 H    2.276896242228    1.440892699097   -0.127333761106
 H    2.492896242228    0.768892699097   -1.781333761106
 H    3.667896242228    0.355892699097   -0.483333761106
 C   -1.498103757772   -2.314107300903   -0.071333761106
 H   -1.876103757772   -2.287107300903   -1.109333761106
 H   -2.091103757772   -1.615107300903    0.544666238894
 H   -1.608103757772   -3.334107300903    0.328666238894
NA   -1.907815035688    3.351384763514    2.828751878436
