14

 P    0.225707252943   -0.464966860103   -0.642310788759
 O   -0.361292747057    0.585033139897    0.312689211241
 O   -0.040292747057   -0.416966860103   -2.154310788759
 O    1.888707252943   -0.638966860103   -0.355310788759
 O   -0.089292747057   -2.022966860103   -0.050310788759
 C    2.625707252943    0.526033139897   -0.732310788759
 H    2.294707252943    1.409033139897   -0.156310788759
 H    2.510707252943    0.737033139897   -1.810310788759
 H    3.685707252943    0.324033139897   -0.512310788759
 C   -1.480292747057   -2.345966860103   -0.100310788759
 H   -1.858292747057   -2.318966860103   -1.138310788759
 H   -2.073292747057   -1.646966860103    0.515689211241
 H   -1.590292747057   -3.365966860103    0.299689211241
NA   -2.004657370817    3.524612109145    2.986306273748
