14

 P    0.237581260086   -0.486206566237   -0.661628807195
 O   -0.349418739914    0.563793433763    0.293371192805
 O   -0.028418739914   -0.438206566237   -2.173628807195
 O    1.900581260086   -0.660206566237   -0.374628807195
 O   -0.077418739914   -2.044206566237   -0.069628807195
 C    2.637581260086    0.504793433763   -0.751628807195
 H    2.306581260086    1.387793433763   -0.175628807195
 H    2.522581260086    0.715793433763   -1.829628807195
 H    3.697581260086    0.302793433763   -0.531628807195
 C   -1.468418739914   -2.367206566237   -0.119628807195
 H   -1.846418739914   -2.340206566237   -1.157628807195
 H   -2.061418739914   -1.668206566237    0.496371192805
 H   -1.578418739914   -3.387206566237    0.280371192805
NA   -2.069218927570    3.640097006232    3.091342537289
