14

 P    0.255392270801   -0.518066125437   -0.690605834848
 O   -0.331607729199    0.531933874563    0.264394165152
 O   -0.010607729199   -0.470066125437   -2.202605834848
 O    1.918392270801   -0.692066125437   -0.403605834848
 O   -0.059607729199   -2.076066125437   -0.098605834848
 C    2.655392270801    0.472933874563   -0.780605834848
 H    2.324392270801    1.355933874563   -0.204605834848
 H    2.540392270801    0.683933874563   -1.858605834848
 H    3.715392270801    0.270933874563   -0.560605834848
 C   -1.450607729199   -2.399066125437   -0.148605834848
 H   -1.828607729199   -2.372066125437   -1.186605834848
 H   -2.043607729199   -1.700066125437    0.467394165152
 H   -1.560607729199   -3.419066125437    0.251394165152
NA   -2.166061262699    3.813324351864    3.248896932601
