14

 P    0.267266277944   -0.539305831570   -0.709923853284
 O   -0.319733722056    0.510694168430    0.245076146716
 O    0.001266277944   -0.491305831570   -2.221923853284
 O    1.930266277944   -0.713305831570   -0.422923853284
 O   -0.047733722056   -2.097305831570   -0.117923853284
 C    2.667266277944    0.451694168430   -0.799923853284
 H    2.336266277944    1.334694168430   -0.223923853284
 H    2.552266277944    0.662694168430   -1.877923853284
 H    3.727266277944    0.249694168430   -0.579923853284
 C   -1.438733722056   -2.420305831570   -0.167923853284
 H   -1.816733722056   -2.393305831570   -1.205923853284
 H   -2.031733722056   -1.721305831570    0.448076146716
 H   -1.548733722056   -3.440305831570    0.232076146716
NA   -2.230622819452    3.928809248951    3.353933196143
