14

 P    0.285077288659   -0.571165390770   -0.738900880937
 O   -0.301922711341    0.478834609230    0.216099119063
 O    0.019077288659   -0.523165390770   -2.250900880937
 O    1.948077288659   -0.745165390770   -0.451900880937
 O   -0.029922711341   -2.129165390770   -0.146900880937
 C    2.685077288659    0.419834609230   -0.828900880937
 H    2.354077288659    1.302834609230   -0.252900880937
 H    2.570077288659    0.630834609230   -1.906900880937
 H    3.745077288659    0.217834609230   -0.608900880937
 C   -1.420922711341   -2.452165390770   -0.196900880937
 H   -1.798922711341   -2.425165390770   -1.234900880937
 H   -2.013922711341   -1.753165390770    0.419099119063
 H   -1.530922711341   -3.472165390770    0.203099119063
NA   -2.327465154581    4.102036594582    3.511487591455
