14

 P    0.302888299374   -0.603024949970   -0.767877908590
 O   -0.284111700626    0.446975050030    0.187122091410
 O    0.036888299374   -0.555024949970   -2.279877908590
 O    1.965888299374   -0.777024949970   -0.480877908590
 O   -0.012111700626   -2.161024949970   -0.175877908590
 C    2.702888299374    0.387975050030   -0.857877908590
 H    2.371888299374    1.270975050030   -0.281877908590
 H    2.587888299374    0.598975050030   -1.935877908590
 H    3.762888299374    0.185975050030   -0.637877908590
 C   -1.403111700626   -2.484024949970   -0.225877908590
 H   -1.781111700626   -2.457024949970   -1.263877908590
 H   -1.996111700626   -1.785024949970    0.390122091410
 H   -1.513111700626   -3.504024949970    0.174122091410
NA   -2.424307489710    4.275263940213    3.669041986767
