14

 P    0.314762306517   -0.624264656104   -0.787195927026
 O   -0.272237693483    0.425735343896    0.167804072974
 O    0.048762306517   -0.576264656104   -2.299195927026
 O    1.977762306517   -0.798264656104   -0.500195927026
 O   -0.000237693483   -2.182264656104   -0.195195927026
 C    2.714762306517    0.366735343896   -0.877195927026
 H    2.383762306517    1.249735343896   -0.301195927026
 H    2.599762306517    0.577735343896   -1.955195927026
 H    3.774762306517    0.164735343896   -0.657195927026
 C   -1.391237693483   -2.505264656104   -0.245195927026
 H   -1.769237693483   -2.478264656104   -1.283195927026
 H   -1.984237693483   -1.806264656104    0.370804072974
 H   -1.501237693483   -3.525264656104    0.154804072974
NA   -2.488869046463    4.390748837301    3.774078250309
