14

 P    0.320699310088   -0.634884509170   -0.796854936244
 O   -0.266300689912    0.415115490830    0.158145063756
 O    0.054699310088   -0.586884509170   -2.308854936244
 O    1.983699310088   -0.808884509170   -0.509854936244
 O    0.005699310088   -2.192884509170   -0.204854936244
 C    2.720699310088    0.356115490830   -0.886854936244
 H    2.389699310088    1.239115490830   -0.310854936244
 H    2.605699310088    0.567115490830   -1.964854936244
 H    3.780699310088    0.154115490830   -0.666854936244
 C   -1.385300689912   -2.515884509170   -0.254854936244
 H   -1.763300689912   -2.488884509170   -1.292854936244
 H   -1.978300689912   -1.816884509170    0.361145063756
 H   -1.495300689912   -3.535884509170    0.145145063756
NA   -2.521149824839    4.448491285845    3.826596382079
