14

 P    0.326636313660   -0.645504362237   -0.806513945462
 O   -0.260363686340    0.404495637763    0.148486054538
 O    0.060636313660   -0.597504362237   -2.318513945462
 O    1.989636313660   -0.819504362237   -0.519513945462
 O    0.011636313660   -2.203504362237   -0.214513945462
 C    2.726636313660    0.345495637763   -0.896513945462
 H    2.395636313660    1.228495637763   -0.320513945462
 H    2.611636313660    0.556495637763   -1.974513945462
 H    3.786636313660    0.143495637763   -0.676513945462
 C   -1.379363686340   -2.526504362237   -0.264513945462
 H   -1.757363686340   -2.499504362237   -1.302513945462
 H   -1.972363686340   -1.827504362237    0.351486054538
 H   -1.489363686340   -3.546504362237    0.135486054538
NA   -2.553430603215    4.506233734388    3.879114513850
