14

 P    0.332573317231   -0.656124215304   -0.816172954679
 O   -0.254426682769    0.393875784696    0.138827045321
 O    0.066573317231   -0.608124215304   -2.328172954679
 O    1.995573317231   -0.830124215304   -0.529172954679
 O    0.017573317231   -2.214124215304   -0.224172954679
 C    2.732573317231    0.334875784696   -0.906172954679
 H    2.401573317231    1.217875784696   -0.330172954679
 H    2.617573317231    0.545875784696   -1.984172954679
 H    3.792573317231    0.132875784696   -0.686172954679
 C   -1.373426682769   -2.537124215304   -0.274172954679
 H   -1.751426682769   -2.510124215304   -1.312172954679
 H   -1.966426682769   -1.838124215304    0.341827045321
 H   -1.483426682769   -3.557124215304    0.125827045321
NA   -2.585711381592    4.563976182932    3.931632645621
