14

 P    0.338510320803   -0.666744068370   -0.825831963897
 O   -0.248489679197    0.383255931630    0.129168036103
 O    0.072510320803   -0.618744068370   -2.337831963897
 O    2.001510320803   -0.840744068370   -0.538831963897
 O    0.023510320803   -2.224744068370   -0.233831963897
 C    2.738510320803    0.324255931630   -0.915831963897
 H    2.407510320803    1.207255931630   -0.339831963897
 H    2.623510320803    0.535255931630   -1.993831963897
 H    3.798510320803    0.122255931630   -0.695831963897
 C   -1.367489679197   -2.547744068370   -0.283831963897
 H   -1.745489679197   -2.520744068370   -1.321831963897
 H   -1.960489679197   -1.848744068370    0.332168036103
 H   -1.477489679197   -3.567744068370    0.116168036103
NA   -2.617992159968    4.621718631476    3.984150777391
