14

 P    0.344447324375   -0.677363921437   -0.835490973115
 O   -0.242552675625    0.372636078563    0.119509026885
 O    0.078447324375   -0.629363921437   -2.347490973115
 O    2.007447324375   -0.851363921437   -0.548490973115
 O    0.029447324375   -2.235363921437   -0.243490973115
 C    2.744447324375    0.313636078563   -0.925490973115
 H    2.413447324375    1.196636078563   -0.349490973115
 H    2.629447324375    0.524636078563   -2.003490973115
 H    3.804447324375    0.111636078563   -0.705490973115
 C   -1.361552675625   -2.558363921437   -0.293490973115
 H   -1.739552675625   -2.531363921437   -1.331490973115
 H   -1.954552675625   -1.859363921437    0.322509026885
 H   -1.471552675625   -3.578363921437    0.106509026885
NA   -2.650272938345    4.679461080020    4.036668909162
