14

 P    0.350384327946   -0.687983774504   -0.845149982333
 O   -0.236615672054    0.362016225496    0.109850017667
 O    0.084384327946   -0.639983774504   -2.357149982333
 O    2.013384327946   -0.861983774504   -0.558149982333
 O    0.035384327946   -2.245983774504   -0.253149982333
 C    2.750384327946    0.303016225496   -0.935149982333
 H    2.419384327946    1.186016225496   -0.359149982333
 H    2.635384327946    0.514016225496   -2.013149982333
 H    3.810384327946    0.101016225496   -0.715149982333
 C   -1.355615672054   -2.568983774504   -0.303149982333
 H   -1.733615672054   -2.541983774504   -1.341149982333
 H   -1.948615672054   -1.869983774504    0.312850017667
 H   -1.465615672054   -3.588983774504    0.096850017667
NA   -2.682553716721    4.737203528563    4.089187040933
