14

 P    0.386006349375   -0.751702892904   -0.903104037640
 O   -0.200993650625    0.298297107096    0.051895962360
 O    0.120006349375   -0.703702892904   -2.415104037640
 O    2.049006349375   -0.925702892904   -0.616104037640
 O    0.071006349375   -2.309702892904   -0.311104037640
 C    2.786006349375    0.239297107096   -0.993104037640
 H    2.455006349375    1.122297107096   -0.417104037640
 H    2.671006349375    0.450297107096   -2.071104037640
 H    3.846006349375    0.037297107096   -0.773104037640
 C   -1.319993650625   -2.632702892904   -0.361104037640
 H   -1.697993650625   -2.605702892904   -1.399104037640
 H   -1.912993650625   -1.933702892904    0.254895962360
 H   -1.429993650625   -3.652702892904    0.038895962360
NA   -2.876238386979    5.083658219826    4.404295831557
