14

 P    0.403817360090   -0.783562452104   -0.932081065293
 O   -0.183182639910    0.266437547896    0.022918934707
 O    0.137817360090   -0.735562452104   -2.444081065293
 O    2.066817360090   -0.957562452104   -0.645081065293
 O    0.088817360090   -2.341562452104   -0.340081065293
 C    2.803817360090    0.207437547896   -1.022081065293
 H    2.472817360090    1.090437547896   -0.446081065293
 H    2.688817360090    0.418437547896   -2.100081065293
 H    3.863817360090    0.005437547896   -0.802081065293
 C   -1.302182639910   -2.664562452104   -0.390081065293
 H   -1.680182639910   -2.637562452104   -1.428081065293
 H   -1.895182639910   -1.965562452104    0.225918934707
 H   -1.412182639910   -3.684562452104    0.009918934707
NA   -2.973080722108    5.256885565457    4.561850226869
