14

 P    0.409754363662   -0.794182305171   -0.941740074511
 O   -0.177245636338    0.255817694829    0.013259925489
 O    0.143754363662   -0.746182305171   -2.453740074511
 O    2.072754363662   -0.968182305171   -0.654740074511
 O    0.094754363662   -2.352182305171   -0.349740074511
 C    2.809754363662    0.196817694829   -1.031740074511
 H    2.478754363662    1.079817694829   -0.455740074511
 H    2.694754363662    0.407817694829   -2.109740074511
 H    3.869754363662   -0.005182305171   -0.811740074511
 C   -1.296245636338   -2.675182305171   -0.399740074511
 H   -1.674245636338   -2.648182305171   -1.437740074511
 H   -1.889245636338   -1.976182305171    0.216259925489
 H   -1.406245636338   -3.695182305171    0.000259925489
NA   -3.005361500484    5.314628014001    4.614368358640
