14

 P    0.427565374376   -0.826041864371   -0.970717102164
 O   -0.159434625624    0.223958135629   -0.015717102164
 O    0.161565374376   -0.778041864371   -2.482717102164
 O    2.090565374376   -1.000041864371   -0.683717102164
 O    0.112565374376   -2.384041864371   -0.378717102164
 C    2.827565374376    0.164958135629   -1.060717102164
 H    2.496565374376    1.047958135629   -0.484717102164
 H    2.712565374376    0.375958135629   -2.138717102164
 H    3.887565374376   -0.037041864371   -0.840717102164
 C   -1.278434625624   -2.707041864371   -0.428717102164
 H   -1.656434625624   -2.680041864371   -1.466717102164
 H   -1.871434625624   -2.008041864371    0.187282897836
 H   -1.388434625624   -3.727041864371   -0.028717102164
NA   -3.102203835613    5.487855359632    4.771922753952
