14

 P    0.439439381520   -0.847281570504   -0.990035120600
 O   -0.147560618480    0.202718429496   -0.035035120600
 O    0.173439381520   -0.799281570504   -2.502035120600
 O    2.102439381520   -1.021281570504   -0.703035120600
 O    0.124439381520   -2.405281570504   -0.398035120600
 C    2.839439381520    0.143718429496   -1.080035120600
 H    2.508439381520    1.026718429496   -0.504035120600
 H    2.724439381520    0.354718429496   -2.158035120600
 H    3.899439381520   -0.058281570504   -0.860035120600
 C   -1.266560618480   -2.728281570504   -0.448035120600
 H   -1.644560618480   -2.701281570504   -1.486035120600
 H   -1.859560618480   -2.029281570504    0.167964879400
 H   -1.376560618480   -3.748281570504   -0.048035120600
NA   -3.166765392366    5.603340256719    4.876959017494
