14

 P    0.463187395806   -0.889760982771   -1.028671157471
 O   -0.123812604194    0.160239017229   -0.073671157471
 O    0.197187395806   -0.841760982771   -2.540671157471
 O    2.126187395806   -1.063760982771   -0.741671157471
 O    0.148187395806   -2.447760982771   -0.436671157471
 C    2.863187395806    0.101239017229   -1.118671157471
 H    2.532187395806    0.984239017229   -0.542671157471
 H    2.748187395806    0.312239017229   -2.196671157471
 H    3.923187395806   -0.100760982771   -0.898671157471
 C   -1.242812604194   -2.770760982771   -0.486671157471
 H   -1.620812604194   -2.743760982771   -1.524671157471
 H   -1.835812604194   -2.071760982771    0.129328842529
 H   -1.352812604194   -3.790760982771   -0.086671157471
NA   -3.295888505872    5.834310050894    5.087031544577
