14

 P    0.498809417235   -0.953480101171   -1.086625212778
 O   -0.088190582765    0.096519898829   -0.131625212778
 O    0.232809417235   -0.905480101171   -2.598625212778
 O    2.161809417235   -1.127480101171   -0.799625212778
 O    0.183809417235   -2.511480101171   -0.494625212778
 C    2.898809417235    0.037519898829   -1.176625212778
 H    2.567809417235    0.920519898829   -0.600625212778
 H    2.783809417235    0.248519898829   -2.254625212778
 H    3.958809417235   -0.164480101171   -0.956625212778
 C   -1.207190582765   -2.834480101171   -0.544625212778
 H   -1.585190582765   -2.807480101171   -1.582625212778
 H   -1.800190582765   -2.135480101171    0.071374787222
 H   -1.317190582765   -3.854480101171   -0.144625212778
NA   -3.489573176130    6.180764742157    5.402140335201
