14

 P    0.516620427950   -0.985339660371   -1.115602240431
 O   -0.070379572050    0.064660339629   -0.160602240431
 O    0.250620427950   -0.937339660371   -2.627602240431
 O    2.179620427950   -1.159339660371   -0.828602240431
 O    0.201620427950   -2.543339660371   -0.523602240431
 C    2.916620427950    0.005660339629   -1.205602240431
 H    2.585620427950    0.888660339629   -0.629602240431
 H    2.801620427950    0.216660339629   -2.283602240431
 H    3.976620427950   -0.196339660371   -0.985602240431
 C   -1.189379572050   -2.866339660371   -0.573602240431
 H   -1.567379572050   -2.839339660371   -1.611602240431
 H   -1.782379572050   -2.167339660371    0.042397759569
 H   -1.299379572050   -3.886339660371   -0.173602240431
NA   -3.586415511259    6.353992087788    5.559694730513
