14

 P    0.528494435093   -1.006579366504   -1.134920258867
 O   -0.058505564907    0.043420633496   -0.179920258867
 O    0.262494435093   -0.958579366504   -2.646920258867
 O    2.191494435093   -1.180579366504   -0.847920258867
 O    0.213494435093   -2.564579366504   -0.542920258867
 C    2.928494435093   -0.015579366504   -1.224920258867
 H    2.597494435093    0.867420633496   -0.648920258867
 H    2.813494435093    0.195420633496   -2.302920258867
 H    3.988494435093   -0.217579366504   -1.004920258867
 C   -1.177505564907   -2.887579366504   -0.592920258867
 H   -1.555505564907   -2.860579366504   -1.630920258867
 H   -1.770505564907   -2.188579366504    0.023079741133
 H   -1.287505564907   -3.907579366504   -0.192920258867
NA   -3.650977068011    6.469476984875    5.664730994055
