14

 P    0.552242449379   -1.049058778771   -1.173556295738
 O   -0.034757550621    0.000941221229   -0.218556295738
 O    0.286242449379   -1.001058778771   -2.685556295738
 O    2.215242449379   -1.223058778771   -0.886556295738
 O    0.237242449379   -2.607058778771   -0.581556295738
 C    2.952242449379   -0.058058778771   -1.263556295738
 H    2.621242449379    0.824941221229   -0.687556295738
 H    2.837242449379    0.152941221229   -2.341556295738
 H    4.012242449379   -0.260058778771   -1.043556295738
 C   -1.153757550621   -2.930058778771   -0.631556295738
 H   -1.531757550621   -2.903058778771   -1.669556295738
 H   -1.746757550621   -2.231058778771   -0.015556295738
 H   -1.263757550621   -3.950058778771   -0.231556295738
NA   -3.780100181517    6.700446779050    5.874803521138
