12

 C   -0.675796018671    2.311157171572   -0.905254608706
 C    0.436545981329    1.291679171572   -0.905254608706
 O   -0.067785018671    0.025226171572   -0.905254608706
 C    0.946680981329   -1.008512828428   -0.905254608706
 O    1.634185981329    1.536172171572   -0.905254608706
 H   -0.243226018671    3.318167171572   -0.905254608706
 H   -1.308133018671    2.168585171572   -0.016639608706
 H   -1.308133018671    2.168585171572   -1.793869608706
 H    0.392583981329   -1.953636828428   -0.905254608706
 H    1.576475981329   -0.922213828428   -0.009064608706
 H    1.576475981329   -0.922213828428   -1.801444608706
CS   -0.257589381654   -0.451401886020    0.504284322473
