12

 C   -0.643289639827    2.392785707207   -1.146655837695
 C    0.469052360173    1.373307707207   -1.146655837695
 O   -0.035278639827    0.106854707207   -1.146655837695
 C    0.979187360173   -0.926884292793   -1.146655837695
 O    1.666692360173    1.617800707207   -1.146655837695
 H   -0.210719639827    3.399795707207   -1.146655837695
 H   -1.275626639827    2.250213707207   -0.258040837695
 H   -1.275626639827    2.250213707207   -2.035270837695
 H    0.425090360173   -1.872008292793   -1.146655837695
 H    1.608982360173   -0.840585292793   -0.250465837695
 H    1.608982360173   -0.840585292793   -2.042845837695
CS   -0.275697499606   -0.496874165742    0.638760141799
