12

 C   -0.627036450406    2.433599975025   -1.267356452189
 C    0.485305549594    1.414121975025   -1.267356452189
 O   -0.019025450406    0.147668975025   -1.267356452189
 C    0.995440549594   -0.886070024975   -1.267356452189
 O    1.682945549594    1.658614975025   -1.267356452189
 H   -0.194466450406    3.440609975025   -1.267356452189
 H   -1.259373450406    2.291027975025   -0.378741452189
 H   -1.259373450406    2.291027975025   -2.155971452189
 H    0.441343549594   -1.831194024975   -1.267356452189
 H    1.625235549594   -0.799771024975   -0.371166452189
 H    1.625235549594   -0.799771024975   -2.163546452189
CS   -0.284751558582   -0.519610305604    0.705998051462
