12

 C   -0.602656666273    2.494821376751   -1.448407373930
 C    0.509685333727    1.475343376751   -1.448407373930
 O    0.005354333727    0.208890376751   -1.448407373930
 C    1.019820333727   -0.824848623249   -1.448407373930
 O    1.707325333727    1.719836376751   -1.448407373930
 H   -0.170086666273    3.501831376751   -1.448407373930
 H   -1.234993666273    2.352249376751   -0.559792373930
 H   -1.234993666273    2.352249376751   -2.337022373930
 H    0.465723333727   -1.769972623249   -1.448407373930
 H    1.649615333727   -0.738549623249   -0.552217373930
 H    1.649615333727   -0.738549623249   -2.344597373930
CS   -0.298332647046   -0.553714515396    0.806854915956
