12

 C   -0.594530071562    2.515228510660   -1.508757681177
 C    0.517811928438    1.495750510660   -1.508757681177
 O    0.013480928438    0.229297510660   -1.508757681177
 C    1.027946928438   -0.804441489340   -1.508757681177
 O    1.715451928438    1.740243510660   -1.508757681177
 H   -0.161960071562    3.522238510660   -1.508757681177
 H   -1.226867071562    2.372656510660   -0.620142681177
 H   -1.226867071562    2.372656510660   -2.397372681177
 H    0.473849928438   -1.749565489340   -1.508757681177
 H    1.657741928438   -0.718142489340   -0.612567681177
 H    1.657741928438   -0.718142489340   -2.404947681177
CS   -0.302859676534   -0.565082585326    0.840473870788
