12

 C   -0.570150287430    2.576449912386   -1.689808602918
 C    0.542191712570    1.556971912386   -1.689808602918
 O    0.037860712570    0.290518912386   -1.689808602918
 C    1.052326712570   -0.743220087614   -1.689808602918
 O    1.739831712570    1.801464912386   -1.689808602918
 H   -0.137580287430    3.583459912386   -1.689808602918
 H   -1.202487287430    2.433877912386   -0.801193602918
 H   -1.202487287430    2.433877912386   -2.578423602918
 H    0.498229712570   -1.688344087614   -1.689808602918
 H    1.682121712570   -0.656921087614   -0.793618602918
 H    1.682121712570   -0.656921087614   -2.585998602918
CS   -0.316440764998   -0.599186795118    0.941330735282
