12

 C   -0.537643908586    2.658078448022   -1.931209831907
 C    0.574698091414    1.638600448022   -1.931209831907
 O    0.070367091414    0.372147448022   -1.931209831907
 C    1.084833091414   -0.661591551978   -1.931209831907
 O    1.772338091414    1.883093448022   -1.931209831907
 H   -0.105073908586    3.665088448022   -1.931209831907
 H   -1.169980908586    2.515506448022   -1.042594831907
 H   -1.169980908586    2.515506448022   -2.819824831907
 H    0.530736091414   -1.606715551978   -1.931209831907
 H    1.714628091414   -0.575292551978   -1.035019831907
 H    1.714628091414   -0.575292551978   -2.827399831907
CS   -0.334548882950   -0.644659074841    1.075806554608
