12

 C   -0.521390719164    2.698892715839   -2.051910446401
 C    0.590951280836    1.679414715839   -2.051910446401
 O    0.086620280836    0.412961715839   -2.051910446401
 C    1.101086280836   -0.620777284161   -2.051910446401
 O    1.788591280836    1.923907715839   -2.051910446401
 H   -0.088820719164    3.705902715839   -2.051910446401
 H   -1.153727719164    2.556320715839   -1.163295446401
 H   -1.153727719164    2.556320715839   -2.940525446401
 H    0.546989280836   -1.565901284161   -2.051910446401
 H    1.730881280836   -0.534478284161   -1.155720446401
 H    1.730881280836   -0.534478284161   -2.948100446401
CS   -0.343602941926   -0.667395214702    1.143044464271
