12

 C   -0.513264124453    2.719299849748   -2.112260753648
 C    0.599077875547    1.699821849748   -2.112260753648
 O    0.094746875547    0.433368849748   -2.112260753648
 C    1.109212875547   -0.600370150252   -2.112260753648
 O    1.796717875547    1.944314849748   -2.112260753648
 H   -0.080694124453    3.726309849748   -2.112260753648
 H   -1.145601124453    2.576727849748   -1.223645753648
 H   -1.145601124453    2.576727849748   -3.000875753648
 H    0.555115875547   -1.545494150252   -2.112260753648
 H    1.739007875547   -0.514071150252   -1.216070753648
 H    1.739007875547   -0.514071150252   -3.008450753648
CS   -0.348129971414   -0.678763284633    1.176663419103
