12

 C   -0.488884340321    2.780521251474   -2.293311675389
 C    0.623457659679    1.761043251474   -2.293311675389
 O    0.119126659679    0.494590251474   -2.293311675389
 C    1.133592659679   -0.539148748526   -2.293311675389
 O    1.821097659679    2.005536251474   -2.293311675389
 H   -0.056314340321    3.787531251474   -2.293311675389
 H   -1.121221340321    2.637949251474   -1.404696675389
 H   -1.121221340321    2.637949251474   -3.181926675389
 H    0.579495659679   -1.484272748526   -2.293311675389
 H    1.763387659679   -0.452849748526   -1.397121675389
 H    1.763387659679   -0.452849748526   -3.189501675389
CS   -0.361711059879   -0.712867494425    1.277520283597
