12

 C   -0.480757745610    2.800928385383   -2.353661982636
 C    0.631584254390    1.781450385383   -2.353661982636
 O    0.127253254390    0.514997385383   -2.353661982636
 C    1.141719254390   -0.518741614617   -2.353661982636
 O    1.829224254390    2.025943385383   -2.353661982636
 H   -0.048187745610    3.807938385383   -2.353661982636
 H   -1.113094745610    2.658356385383   -1.465046982636
 H   -1.113094745610    2.658356385383   -3.242276982636
 H    0.587622254390   -1.463865614617   -2.353661982636
 H    1.771514254390   -0.432442614617   -1.457471982636
 H    1.771514254390   -0.432442614617   -3.249851982636
CS   -0.366238089367   -0.724235564355    1.311139238429
