12

 C   -0.440124772056    2.902964054927   -2.655413518872
 C    0.672217227944    1.883486054927   -2.655413518872
 O    0.167886227944    0.617033054927   -2.655413518872
 C    1.182352227944   -0.416705945073   -2.655413518872
 O    1.869857227944    2.127979054927   -2.655413518872
 H   -0.007554772056    3.909974054927   -2.655413518872
 H   -1.072461772056    2.760392054927   -1.766798518872
 H   -1.072461772056    2.760392054927   -3.544028518872
 H    0.628255227944   -1.361829945073   -2.655413518872
 H    1.812147227944   -0.330406945073   -1.759223518872
 H    1.812147227944   -0.330406945073   -3.551603518872
CS   -0.388873236807   -0.781075914008    1.479234012586
