12

 C   -0.415744987923    2.964185456654   -2.836464440613
 C    0.696597012077    1.944707456654   -2.836464440613
 O    0.192266012077    0.678254456654   -2.836464440613
 C    1.206732012077   -0.355484543346   -2.836464440613
 O    1.894237012077    2.189200456654   -2.836464440613
 H    0.016825012077    3.971195456654   -2.836464440613
 H   -1.048081987923    2.821613456654   -1.947849440613
 H   -1.048081987923    2.821613456654   -3.725079440613
 H    0.652635012077   -1.300608543346   -2.836464440613
 H    1.836527012077   -0.269185543346   -1.940274440613
 H    1.836527012077   -0.269185543346   -3.732654440613
CS   -0.402454325271   -0.815180123800    1.580090877081
