12

 C   -0.366985419658    3.086628260107   -3.198566284096
 C    0.745356580342    2.067150260107   -3.198566284096
 O    0.241025580342    0.800697260107   -3.198566284096
 C    1.255491580342   -0.233041739893   -3.198566284096
 O    1.942996580342    2.311643260107   -3.198566284096
 H    0.065584580342    4.093638260107   -3.198566284096
 H   -0.999322419658    2.944056260107   -2.309951284096
 H   -0.999322419658    2.944056260107   -4.087181284096
 H    0.701394580342   -1.178165739893   -3.198566284096
 H    1.885286580342   -0.146742739893   -2.302376284096
 H    1.885286580342   -0.146742739893   -4.094756284096
CS   -0.429616502199   -0.883388543384    1.781804606070
