12

 C   -0.350732230236    3.127442527924   -3.319266898590
 C    0.761609769764    2.107964527924   -3.319266898590
 O    0.257278769764    0.841511527924   -3.319266898590
 C    1.271744769764   -0.192227472076   -3.319266898590
 O    1.959249769764    2.352457527924   -3.319266898590
 H    0.081837769764    4.134452527924   -3.319266898590
 H   -0.983069230236    2.984870527924   -2.430651898590
 H   -0.983069230236    2.984870527924   -4.207881898590
 H    0.717647769764   -1.137351472076   -3.319266898590
 H    1.901539769764   -0.105928472076   -2.423076898590
 H    1.901539769764   -0.105928472076   -4.215456898590
CS   -0.438670561175   -0.906124683246    1.849042515733
