12

 C   -0.334479040814    3.168256795742   -3.439967513084
 C    0.777862959186    2.148778795742   -3.439967513084
 O    0.273531959186    0.882325795742   -3.439967513084
 C    1.287997959186   -0.151413204258   -3.439967513084
 O    1.975502959186    2.393271795742   -3.439967513084
 H    0.098090959186    4.175266795742   -3.439967513084
 H   -0.966816040814    3.025684795742   -2.551352513084
 H   -0.966816040814    3.025684795742   -4.328582513084
 H    0.733900959186   -1.096537204258   -3.439967513084
 H    1.917792959186   -0.065114204258   -2.543777513084
 H    1.917792959186   -0.065114204258   -4.336157513084
CS   -0.447724620151   -0.928860823107    1.916280425396
