12

 C   -0.318225851393    3.209071063559   -3.560668127578
 C    0.794116148607    2.189593063559   -3.560668127578
 O    0.289785148607    0.923140063559   -3.560668127578
 C    1.304251148607   -0.110598936441   -3.560668127578
 O    1.991756148607    2.434086063559   -3.560668127578
 H    0.114344148607    4.216081063559   -3.560668127578
 H   -0.950562851393    3.066499063559   -2.672053127578
 H   -0.950562851393    3.066499063559   -4.449283127578
 H    0.750154148607   -1.055722936441   -3.560668127578
 H    1.934046148607   -0.024299936441   -2.664478127578
 H    1.934046148607   -0.024299936441   -4.456858127578
CS   -0.456778679127   -0.951596962968    1.983518335059
