12

 C   -0.310099256682    3.229478197468   -3.621018434825
 C    0.802242743318    2.210000197468   -3.621018434825
 O    0.297911743318    0.943547197468   -3.621018434825
 C    1.312377743318   -0.090191802532   -3.621018434825
 O    1.999882743318    2.454493197468   -3.621018434825
 H    0.122470743318    4.236488197468   -3.621018434825
 H   -0.942436256682    3.086906197468   -2.732403434825
 H   -0.942436256682    3.086906197468   -4.509633434825
 H    0.758280743318   -1.035315802532   -3.621018434825
 H    1.942172743318   -0.003892802532   -2.724828434825
 H    1.942172743318   -0.003892802532   -4.517208434825
CS   -0.461305708615   -0.962965032899    2.017137289890
