12

 C   -0.301972661971    3.249885331377   -3.681368742072
 C    0.810369338029    2.230407331377   -3.681368742072
 O    0.306038338029    0.963954331377   -3.681368742072
 C    1.320504338029   -0.069784668623   -3.681368742072
 O    2.008009338029    2.474900331377   -3.681368742072
 H    0.130597338029    4.256895331377   -3.681368742072
 H   -0.934309661971    3.107313331377   -2.792753742072
 H   -0.934309661971    3.107313331377   -4.569983742072
 H    0.766407338029   -1.014908668623   -3.681368742072
 H    1.950299338029    0.016514331377   -2.785178742072
 H    1.950299338029    0.016514331377   -4.577558742072
CS   -0.465832738103   -0.974333102829    2.050756244722
