12

 C   -0.285719472549    3.290699599195   -3.802069356567
 C    0.826622527451    2.271221599195   -3.802069356567
 O    0.322291527451    1.004768599195   -3.802069356567
 C    1.336757527451   -0.028970400805   -3.802069356567
 O    2.024262527451    2.515714599195   -3.802069356567
 H    0.146850527451    4.297709599195   -3.802069356567
 H   -0.918056472549    3.148127599195   -2.913454356567
 H   -0.918056472549    3.148127599195   -4.690684356567
 H    0.782660527451   -0.974094400805   -3.802069356567
 H    1.966552527451    0.057328599195   -2.905879356567
 H    1.966552527451    0.057328599195   -4.698259356567
CS   -0.474886797079   -0.997069242691    2.117994154385
