12

 C   -0.245086498995    3.392735268739   -4.103820892802
 C    0.867255501005    2.373257268739   -4.103820892802
 O    0.362924501005    1.106804268739   -4.103820892802
 C    1.377390501005    0.073065268739   -4.103820892802
 O    2.064895501005    2.617750268739   -4.103820892802
 H    0.187483501005    4.399745268739   -4.103820892802
 H   -0.877423498995    3.250163268739   -3.215205892802
 H   -0.877423498995    3.250163268739   -4.992435892802
 H    0.823293501005   -0.872058731261   -4.103820892802
 H    2.007185501005    0.159364268739   -3.207630892802
 H    2.007185501005    0.159364268739   -5.000010892802
CS   -0.497521944519   -1.053909592344    2.286088928542
