12

 C   -0.180073741308    3.555992340009   -4.586623350779
 C    0.932268258692    2.536514340009   -4.586623350779
 O    0.427937258692    1.270061340009   -4.586623350779
 C    1.442403258692    0.236322340009   -4.586623350779
 O    2.129908258692    2.781007340009   -4.586623350779
 H    0.252496258692    4.563002340009   -4.586623350779
 H   -0.812410741308    3.413420340009   -3.698008350779
 H   -0.812410741308    3.413420340009   -5.475238350779
 H    0.888306258692   -0.708801659991   -4.586623350779
 H    2.072198258692    0.322621340009   -3.690433350779
 H    2.072198258692    0.322621340009   -5.482813350779
CS   -0.533738180423   -1.144854151789    2.555040567194
