12

 C   -0.155693957175    3.617213741735   -4.767674272520
 C    0.956648042825    2.597735741735   -4.767674272520
 O    0.452317042825    1.331282741735   -4.767674272520
 C    1.466783042825    0.297543741735   -4.767674272520
 O    2.154288042825    2.842228741735   -4.767674272520
 H    0.276876042825    4.624223741735   -4.767674272520
 H   -0.788030957175    3.474641741735   -3.879059272520
 H   -0.788030957175    3.474641741735   -5.656289272520
 H    0.912686042825   -0.647580258265   -4.767674272520
 H    2.096578042825    0.383842741735   -3.871484272520
 H    2.096578042825    0.383842741735   -5.663864272520
CS   -0.547319268887   -1.178958361581    2.655897431689
