12

 C   -0.131314173043    3.678435143462   -4.948725194261
 C    0.981027826957    2.658957143462   -4.948725194261
 O    0.476696826957    1.392504143462   -4.948725194261
 C    1.491162826957    0.358765143462   -4.948725194261
 O    2.178667826957    2.903450143462   -4.948725194261
 H    0.301255826957    4.685445143462   -4.948725194261
 H   -0.763651173043    3.535863143462   -4.060110194261
 H   -0.763651173043    3.535863143462   -5.837340194261
 H    0.937065826957   -0.586358856538   -4.948725194261
 H    2.120957826957    0.445064143462   -4.052535194261
 H    2.120957826957    0.445064143462   -5.844915194261
CS   -0.560900357351   -1.213062571373    2.756754296183
