12

 C   -0.115060983621    3.719249411279   -5.069425808755
 C    0.997281016379    2.699771411279   -5.069425808755
 O    0.492950016379    1.433318411279   -5.069425808755
 C    1.507416016379    0.399579411279   -5.069425808755
 O    2.194921016379    2.944264411279   -5.069425808755
 H    0.317509016379    4.726259411279   -5.069425808755
 H   -0.747397983621    3.576677411279   -4.180810808755
 H   -0.747397983621    3.576677411279   -5.958040808755
 H    0.953319016379   -0.545544588721   -5.069425808755
 H    2.137211016379    0.485878411279   -4.173235808755
 H    2.137211016379    0.485878411279   -5.965615808755
CS   -0.569954416327   -1.235798711234    2.823992205846
