12

 C   -0.106934388910    3.739656545188   -5.129776116002
 C    1.005407611090    2.720178545188   -5.129776116002
 O    0.501076611090    1.453725545188   -5.129776116002
 C    1.515542611090    0.419986545188   -5.129776116002
 O    2.203047611090    2.964671545188   -5.129776116002
 H    0.325635611090    4.746666545188   -5.129776116002
 H   -0.739271388910    3.597084545188   -4.241161116002
 H   -0.739271388910    3.597084545188   -6.018391116002
 H    0.961445611090   -0.525137454812   -5.129776116002
 H    2.145337611090    0.506285545188   -4.233586116002
 H    2.145337611090    0.506285545188   -6.025966116002
CS   -0.574481445815   -1.247166781165    2.857611160678
