12

 C   -0.033795036512    3.923320750368   -5.672928881226
 C    1.078546963488    2.903842750368   -5.672928881226
 O    0.574215963488    1.637389750368   -5.672928881226
 C    1.588681963488    0.603650750368   -5.672928881226
 O    2.276186963488    3.148335750368   -5.672928881226
 H    0.398774963488    4.930330750368   -5.672928881226
 H   -0.666132036512    3.780748750368   -4.784313881226
 H   -0.666132036512    3.780748750368   -6.561543881226
 H    1.034584963488   -0.341473249632   -5.672928881226
 H    2.218476963488    0.689949750368   -4.776738881226
 H    2.218476963488    0.689949750368   -6.569118881226
CS   -0.615224711208   -1.349479410541    3.160181754161
