12

 C   -0.017541847091    3.964135018185   -5.793629495720
 C    1.094800152909    2.944657018185   -5.793629495720
 O    0.590469152909    1.678204018185   -5.793629495720
 C    1.604935152909    0.644465018185   -5.793629495720
 O    2.292440152909    3.189150018185   -5.793629495720
 H    0.415028152909    4.971145018185   -5.793629495720
 H   -0.649878847091    3.821563018185   -4.905014495720
 H   -0.649878847091    3.821563018185   -6.682244495720
 H    1.050838152909   -0.300658981815   -5.793629495720
 H    2.234730152909    0.730764018185   -4.897439495720
 H    2.234730152909    0.730764018185   -6.689819495720
CS   -0.624278770184   -1.372215550402    3.227419663824
