12

 C    0.006837937042    4.025356419912   -5.974680417462
 C    1.119179937042    3.005878419912   -5.974680417462
 O    0.614848937042    1.739425419912   -5.974680417462
 C    1.629314937042    0.705686419912   -5.974680417462
 O    2.316819937042    3.250371419912   -5.974680417462
 H    0.439407937042    5.032366419912   -5.974680417462
 H   -0.625499062958    3.882784419912   -5.086065417462
 H   -0.625499062958    3.882784419912   -6.863295417462
 H    1.075217937042   -0.239437580088   -5.974680417462
 H    2.259109937042    0.791985419912   -5.078490417462
 H    2.259109937042    0.791985419912   -6.870870417462
CS   -0.637859858648   -1.406319760194    3.328276528319
