9

 C   -1.719696704701   -0.690622049049   -0.367677783317
 H   -2.698623704701   -0.198834049049   -0.367677783317
 H   -1.612550704701   -1.330431049049    0.520594216683
 H   -1.612550704701   -1.330431049049   -1.255949783317
 C   -0.635069704701    0.354961950951   -0.367677783317
 O   -0.796173704701    1.564512950951   -0.367677783317
 O    0.607216295299   -0.222046049049   -0.367677783317
 H    1.241752295299    0.516516950951   -0.367677783317
 K    0.923889619242   -0.387109158998    0.566384407138
