9

 C   -1.744627324305   -0.677627188751   -0.441213339980
 H   -2.723554324305   -0.185839188751   -0.441213339980
 H   -1.637481324305   -1.317436188751    0.447058660020
 H   -1.637481324305   -1.317436188751   -1.329485339980
 C   -0.660000324305    0.367956811249   -0.441213339980
 O   -0.821104324305    1.577507811249   -0.441213339980
 O    0.582285675695   -0.209051188751   -0.441213339980
 H    1.216821675695    0.529511811249   -0.441213339980
 K    0.962293664426   -0.407126920690    0.679661288566
