9

 C   -1.757092634107   -0.671129758602   -0.477981118312
 H   -2.736019634107   -0.179341758602   -0.477981118312
 H   -1.649946634107   -1.310938758602    0.410290881688
 H   -1.649946634107   -1.310938758602   -1.366253118312
 C   -0.672465634107    0.374454241398   -0.477981118312
 O   -0.833569634107    1.584005241398   -0.477981118312
 O    0.569820365893   -0.202553758602   -0.477981118312
 H    1.204356365893    0.536009241398   -0.477981118312
 K    0.981495687019   -0.417135801536    0.736299729280
