9

 C   -1.769557943909   -0.664632328453   -0.514748896643
 H   -2.748484943909   -0.172844328453   -0.514748896643
 H   -1.662411943909   -1.304441328453    0.373523103357
 H   -1.662411943909   -1.304441328453   -1.403020896643
 C   -0.684930943909    0.380951671547   -0.514748896643
 O   -0.846034943909    1.590502671547   -0.514748896643
 O    0.557355056091   -0.196056328453   -0.514748896643
 H    1.191891056091    0.542506671547   -0.514748896643
 K    1.000697709611   -0.427144682382    0.792938169993
