9

 C   -1.782023253711   -0.658134898304   -0.551516674975
 H   -2.760950253711   -0.166346898304   -0.551516674975
 H   -1.674877253711   -1.297943898304    0.336755325025
 H   -1.674877253711   -1.297943898304   -1.439788674975
 C   -0.697396253711    0.387449101696   -0.551516674975
 O   -0.858500253711    1.597000101696   -0.551516674975
 O    0.544889746289   -0.189558898304   -0.551516674975
 H    1.179425746289    0.549004101696   -0.551516674975
 K    1.019899732204   -0.437153563227    0.849576610707
