9

 C   -1.794488563513   -0.651637468155   -0.588284453306
 H   -2.773415563513   -0.159849468155   -0.588284453306
 H   -1.687342563513   -1.291446468155    0.299987546694
 H   -1.687342563513   -1.291446468155   -1.476556453306
 C   -0.709861563513    0.393946531845   -0.588284453306
 O   -0.870965563513    1.603497531845   -0.588284453306
 O    0.532424436487   -0.183061468155   -0.588284453306
 H    1.166960436487    0.555501531845   -0.588284453306
 K    1.039101754796   -0.447162444073    0.906215051421
