9

 C   -1.806953873315   -0.645140038006   -0.625052231638
 H   -2.785880873315   -0.153352038006   -0.625052231638
 H   -1.699807873315   -1.284949038006    0.263219768362
 H   -1.699807873315   -1.284949038006   -1.513324231638
 C   -0.722326873315    0.400443961994   -0.625052231638
 O   -0.883430873315    1.609994961994   -0.625052231638
 O    0.519959126685   -0.176564038006   -0.625052231638
 H    1.154495126685    0.561998961994   -0.625052231638
 K    1.058303777388   -0.457171324919    0.962853492135
