9

 C   -2.841574586874   -0.105853335636   -3.676777833165
 H   -3.820501586874    0.385934664364   -3.676777833165
 H   -2.734428586874   -0.745662335636   -2.788505833165
 H   -2.734428586874   -0.745662335636   -4.565049833165
 C   -1.756947586874    0.939730664364   -3.676777833165
 O   -1.918051586874    2.149281664364   -3.676777833165
 O   -0.514661586874    0.362722664364   -3.676777833165
 H    0.119874413126    1.101285664364   -3.676777833165
 K    2.652071652554   -1.287908435125    5.663844071381
