9

 C   -1.844349802720   -0.625647747559   -0.735355566633
 H   -2.823276802720   -0.133859747559   -0.735355566633
 H   -1.737203802720   -1.265456747559    0.152916433367
 H   -1.737203802720   -1.265456747559   -1.623627566633
 C   -0.759722802720    0.419936252441   -0.735355566633
 O   -0.920826802720    1.629487252441   -0.735355566633
 O    0.482563197280   -0.157071747559   -0.735355566633
 H    1.117099197280    0.581491252441   -0.735355566633
 K    1.115909845165   -0.487197967457    1.132768814276
