9

 C   -1.856815112522   -0.619150317410   -0.772123344965
 H   -2.835742112522   -0.127362317410   -0.772123344965
 H   -1.749669112522   -1.258959317410    0.116148655035
 H   -1.749669112522   -1.258959317410   -1.660395344965
 C   -0.772188112522    0.426433682590   -0.772123344965
 O   -0.933292112522    1.635984682590   -0.772123344965
 O    0.470097887478   -0.150574317410   -0.772123344965
 H    1.104633887478    0.587988682590   -0.772123344965
 K    1.135111867758   -0.497206848303    1.189407254990
