9

 C   -1.869280422324   -0.612652887261   -0.808891123296
 H   -2.848207422324   -0.120864887261   -0.808891123296
 H   -1.762134422324   -1.252461887261    0.079380876704
 H   -1.762134422324   -1.252461887261   -1.697163123296
 C   -0.784653422324    0.432931112739   -0.808891123296
 O   -0.945757422324    1.642482112739   -0.808891123296
 O    0.457632577676   -0.144076887261   -0.808891123296
 H    1.092168577676    0.594486112739   -0.808891123296
 K    1.154313890350   -0.507215729148    1.246045695704
