9

 C   -1.881745732126   -0.606155457112   -0.845658901628
 H   -2.860672732126   -0.114367457112   -0.845658901628
 H   -1.774599732126   -1.245964457112    0.042613098372
 H   -1.774599732126   -1.245964457112   -1.733930901628
 C   -0.797118732126    0.439428542888   -0.845658901628
 O   -0.958222732126    1.648979542888   -0.845658901628
 O    0.445167267874   -0.137579457112   -0.845658901628
 H    1.079703267874    0.600983542888   -0.845658901628
 K    1.173515912942   -0.517224609994    1.302684136418
