9

 C   -1.894211041928   -0.599658026963   -0.882426679960
 H   -2.873138041928   -0.107870026963   -0.882426679960
 H   -1.787065041928   -1.239467026963    0.005845320040
 H   -1.787065041928   -1.239467026963   -1.770698679960
 C   -0.809584041928    0.445925973037   -0.882426679960
 O   -0.970688041928    1.655476973037   -0.882426679960
 O    0.432701958072   -0.131082026963   -0.882426679960
 H    1.067237958072    0.607480973037   -0.882426679960
 K    1.192717935535   -0.527233490840    1.359322577132
