9

 C   -1.906676351730   -0.593160596814   -0.919194458291
 H   -2.885603351730   -0.101372596814   -0.919194458291
 H   -1.799530351730   -1.232969596814   -0.030922458291
 H   -1.799530351730   -1.232969596814   -1.807466458291
 C   -0.822049351730    0.452423403186   -0.919194458291
 O   -0.983153351730    1.661974403186   -0.919194458291
 O    0.420236648270   -0.124584596814   -0.919194458291
 H    1.054772648270    0.613978403186   -0.919194458291
 K    1.211919958127   -0.537242371686    1.415961017845
