9

 C   -1.919141661532   -0.586663166665   -0.955962236623
 H   -2.898068661532   -0.094875166665   -0.955962236623
 H   -1.811995661532   -1.226472166665   -0.067690236623
 H   -1.811995661532   -1.226472166665   -1.844234236623
 C   -0.834514661532    0.458920833335   -0.955962236623
 O   -0.995618661532    1.668471833335   -0.955962236623
 O    0.407771338468   -0.118087166665   -0.955962236623
 H    1.042307338468    0.620475833335   -0.955962236623
 K    1.231121980720   -0.547251252532    1.472599458559
