9

 C   -1.944072281136   -0.573668306367   -1.029497793286
 H   -2.922999281136   -0.081880306367   -1.029497793286
 H   -1.836926281136   -1.213477306367   -0.141225793286
 H   -1.836926281136   -1.213477306367   -1.917769793286
 C   -0.859445281136    0.471915693633   -1.029497793286
 O   -1.020549281136    1.681466693633   -1.029497793286
 O    0.382840718864   -0.105092306367   -1.029497793286
 H    1.017376718864    0.633470693633   -1.029497793286
 K    1.269526025904   -0.567269014224    1.585876339987
