9

 C   -2.006398830145   -0.541181155621   -1.213336684945
 H   -2.985325830145   -0.049393155621   -1.213336684945
 H   -1.899252830145   -1.180990155621   -0.325064684945
 H   -1.899252830145   -1.180990155621   -2.101608684945
 C   -0.921771830145    0.504402844379   -1.213336684945
 O   -1.082875830145    1.713953844379   -1.213336684945
 O    0.320514169855   -0.072605155621   -1.213336684945
 H    0.955050169855    0.665957844379   -1.213336684945
 K    1.365536138866   -0.617313418453    1.869068543556
