9

 C   -2.043794759551   -0.521688865174   -1.323640019940
 H   -3.022721759551   -0.029900865174   -1.323640019940
 H   -1.936648759551   -1.161497865174   -0.435368019940
 H   -1.936648759551   -1.161497865174   -2.211912019940
 C   -0.959167759551    0.523895134826   -1.323640019940
 O   -1.120271759551    1.733446134826   -1.323640019940
 O    0.283118240449   -0.053112865174   -1.323640019940
 H    0.917654240449    0.685450134826   -1.323640019940
 K    1.423142206643   -0.647340060990    2.038983865697
