9

 C   -2.081190688957   -0.502196574727   -1.433943354935
 H   -3.060117688957   -0.010408574727   -1.433943354935
 H   -1.974044688957   -1.142005574727   -0.545671354935
 H   -1.974044688957   -1.142005574727   -2.322215354935
 C   -0.996563688957    0.543387425273   -1.433943354935
 O   -1.157667688957    1.752938425273   -1.433943354935
 O    0.245722311043   -0.033620574727   -1.433943354935
 H    0.880258311043    0.704942425273   -1.433943354935
 K    1.480748274420   -0.677366703528    2.208899187839
