9

 C   -2.118586618363   -0.482704284280   -1.544246689929
 H   -3.097513618363    0.009083715720   -1.544246689929
 H   -2.011440618363   -1.122513284280   -0.655974689929
 H   -2.011440618363   -1.122513284280   -2.432518689929
 C   -1.033959618363    0.562879715720   -1.544246689929
 O   -1.195063618363    1.772430715720   -1.544246689929
 O    0.208326381637   -0.014128284280   -1.544246689929
 H    0.842862381637    0.724434715720   -1.544246689929
 K    1.538354342197   -0.707393346066    2.378814509980
