9

 C   -2.143517237967   -0.469709423982   -1.617782246593
 H   -3.122444237967    0.022078576018   -1.617782246593
 H   -2.036371237967   -1.109518423982   -0.729510246593
 H   -2.036371237967   -1.109518423982   -2.506054246593
 C   -1.058890237967    0.575874576018   -1.617782246593
 O   -1.219994237967    1.785425576018   -1.617782246593
 O    0.183395762033   -0.001133423982   -1.617782246593
 H    0.817931762033    0.737429576018   -1.617782246593
 K    1.576758387382   -0.727411107757    2.492091391408
