9

 C   -2.155982547768   -0.463211993833   -1.654550024924
 H   -3.134909547768    0.028576006167   -1.654550024924
 H   -2.048836547768   -1.103020993833   -0.766278024924
 H   -2.048836547768   -1.103020993833   -2.542822024924
 C   -1.071355547768    0.582372006167   -1.654550024924
 O   -1.232459547768    1.791923006167   -1.654550024924
 O    0.170930452232    0.005364006167   -1.654550024924
 H    0.805466452232    0.743927006167   -1.654550024924
 K    1.595960409974   -0.737419988603    2.548729832122
