9

 C   -2.168447857570   -0.456714563684   -1.691317803256
 H   -3.147374857570    0.035073436316   -1.691317803256
 H   -2.061301857570   -1.096523563684   -0.803045803256
 H   -2.061301857570   -1.096523563684   -2.579589803256
 C   -1.083820857570    0.588869436316   -1.691317803256
 O   -1.244924857570    1.798420436316   -1.691317803256
 O    0.158465142430    0.011861436316   -1.691317803256
 H    0.793001142430    0.750424436316   -1.691317803256
 K    1.615162432567   -0.747428869449    2.605368272835
