9

 C   -2.205843786976   -0.437222273237   -1.801621138251
 H   -3.184770786976    0.054565726763   -1.801621138251
 H   -2.098697786976   -1.077031273237   -0.913349138251
 H   -2.098697786976   -1.077031273237   -2.689893138251
 C   -1.121216786976    0.608361726763   -1.801621138251
 O   -1.282320786976    1.817912726763   -1.801621138251
 O    0.121069213024    0.031353726763   -1.801621138251
 H    0.755605213024    0.769916726763   -1.801621138251
 K    1.672768500344   -0.777455511986    2.775283594977
