9

 C   -2.218309096778   -0.430724843088   -1.838388916583
 H   -3.197236096778    0.061063156912   -1.838388916583
 H   -2.111163096778   -1.070533843088   -0.950116916583
 H   -2.111163096778   -1.070533843088   -2.726660916583
 C   -1.133682096778    0.614859156912   -1.838388916583
 O   -1.294786096778    1.824410156912   -1.838388916583
 O    0.108603903222    0.037851156912   -1.838388916583
 H    0.743139903222    0.776414156912   -1.838388916583
 K    1.691970522936   -0.787464392832    2.831922035691
