9

 C   -2.243239716382   -0.417729982790   -1.911924473246
 H   -3.222166716382    0.074058017210   -1.911924473246
 H   -2.136093716382   -1.057538982790   -1.023652473246
 H   -2.136093716382   -1.057538982790   -2.800196473246
 C   -1.158612716382    0.627854017210   -1.911924473246
 O   -1.319716716382    1.837405017210   -1.911924473246
 O    0.083673283618    0.050846017210   -1.911924473246
 H    0.718209283618    0.789409017210   -1.911924473246
 K    1.730374568121   -0.807482154524    2.945198917118
