9

 C   -2.255705026184   -0.411232552641   -1.948692251578
 H   -3.234632026184    0.080555447359   -1.948692251578
 H   -2.148559026184   -1.051041552641   -1.060420251578
 H   -2.148559026184   -1.051041552641   -2.836964251578
 C   -1.171078026184    0.634351447359   -1.948692251578
 O   -1.332182026184    1.843902447359   -1.948692251578
 O    0.071207973816    0.057343447359   -1.948692251578
 H    0.705743973816    0.795906447359   -1.948692251578
 K    1.749576590713   -0.817491035370    3.001837357832
