9

 C   -2.268170335986   -0.404735122492   -1.985460029909
 H   -3.247097335986    0.087052877508   -1.985460029909
 H   -2.161024335986   -1.044544122492   -1.097188029909
 H   -2.161024335986   -1.044544122492   -2.873732029909
 C   -1.183543335986    0.640848877508   -1.985460029909
 O   -1.344647335986    1.850399877508   -1.985460029909
 O    0.058742664014    0.063840877508   -1.985460029909
 H    0.693278664014    0.802403877508   -1.985460029909
 K    1.768778613306   -0.827499916216    3.058475798546
