9

 C   -2.280635645788   -0.398237692343   -2.022227808241
 H   -3.259562645788    0.093550307657   -2.022227808241
 H   -2.173489645788   -1.038046692343   -1.133955808241
 H   -2.173489645788   -1.038046692343   -2.910499808241
 C   -1.196008645788    0.647346307657   -2.022227808241
 O   -1.357112645788    1.856897307657   -2.022227808241
 O    0.046277354212    0.070338307657   -2.022227808241
 H    0.680813354212    0.808901307657   -2.022227808241
 K    1.787980635898   -0.837508797062    3.115114239260
