9

 C   -2.293100955590   -0.391740262194   -2.058995586573
 H   -3.272027955590    0.100047737806   -2.058995586573
 H   -2.185954955590   -1.031549262194   -1.170723586573
 H   -2.185954955590   -1.031549262194   -2.947267586573
 C   -1.208473955590    0.653843737806   -2.058995586573
 O   -1.369577955590    1.863394737806   -2.058995586573
 O    0.033812044410    0.076835737806   -2.058995586573
 H    0.668348044410    0.815398737806   -2.058995586573
 K    1.807182658490   -0.847517677907    3.171752679974
