9

 C   -2.442684673213   -0.313771100405   -2.500208926552
 H   -3.421611673213    0.178016899595   -2.500208926552
 H   -2.335538673213   -0.953580100405   -1.611936926552
 H   -2.335538673213   -0.953580100405   -3.388480926552
 C   -1.358057673213    0.731812899595   -2.500208926552
 O   -1.519161673213    1.941363899595   -2.500208926552
 O   -0.115771673213    0.154804899595   -2.500208926552
 H    0.518764326787    0.893367899595   -2.500208926552
 K    2.037606929599   -0.967624248058    3.851413968539
