9

 C   -2.505011222222   -0.281283949660   -2.684047818211
 H   -3.483938222222    0.210504050340   -2.684047818211
 H   -2.397865222222   -0.921092949660   -1.795775818211
 H   -2.397865222222   -0.921092949660   -3.572319818211
 C   -1.420384222222    0.764300050340   -2.684047818211
 O   -1.581488222222    1.973851050340   -2.684047818211
 O   -0.178098222222    0.187292050340   -2.684047818211
 H    0.456437777778    0.925855050340   -2.684047818211
 K    2.133617042561   -1.017668652287    4.134606172108
