9

 C   -2.517476532024   -0.274786519511   -2.720815596542
 H   -3.496403532024    0.217001480489   -2.720815596542
 H   -2.410330532024   -0.914595519511   -1.832543596542
 H   -2.410330532024   -0.914595519511   -3.609087596542
 C   -1.432849532024    0.770797480489   -2.720815596542
 O   -1.593953532024    1.980348480489   -2.720815596542
 O   -0.190563532024    0.193789480489   -2.720815596542
 H    0.443972467976    0.932352480489   -2.720815596542
 K    2.152819065153   -1.027677533133    4.191244612822
