9

 C   -2.529941841826   -0.268289089362   -2.757583374874
 H   -3.508868841826    0.223498910638   -2.757583374874
 H   -2.422795841826   -0.908098089362   -1.869311374874
 H   -2.422795841826   -0.908098089362   -3.645855374874
 C   -1.445314841826    0.777294910638   -2.757583374874
 O   -1.606418841826    1.986845910638   -2.757583374874
 O   -0.203028841826    0.200286910638   -2.757583374874
 H    0.431507158174    0.938849910638   -2.757583374874
 K    2.172021087745   -1.037686413979    4.247883053536
