9

 C   -2.554872461430   -0.255294229064   -2.831118931537
 H   -3.533799461430    0.236493770936   -2.831118931537
 H   -2.447726461430   -0.895103229064   -1.942846931537
 H   -2.447726461430   -0.895103229064   -3.719390931537
 C   -1.470245461430    0.790289770936   -2.831118931537
 O   -1.631349461430    1.999840770936   -2.831118931537
 O   -0.227959461430    0.213281770936   -2.831118931537
 H    0.406576538570    0.951844770936   -2.831118931537
 K    2.210425132930   -1.057704175670    4.361159934964
