9

 C   -2.617199010440   -0.222807078319   -3.014957823196
 H   -3.596126010440    0.268980921681   -3.014957823196
 H   -2.510053010440   -0.862616078319   -2.126685823196
 H   -2.510053010440   -0.862616078319   -3.903229823196
 C   -1.532572010440    0.822776921681   -3.014957823196
 O   -1.693676010440    2.032327921681   -3.014957823196
 O   -0.290286010440    0.245768921681   -3.014957823196
 H    0.344249989560    0.984331921681   -3.014957823196
 K    2.306435245892   -1.107748579900    4.644352138533
