9

 C   -2.691990869251   -0.183822497424   -3.235564493186
 H   -3.670917869251    0.307965502576   -3.235564493186
 H   -2.584844869251   -0.823631497424   -2.347292493186
 H   -2.584844869251   -0.823631497424   -4.123836493186
 C   -1.607363869251    0.861761502576   -3.235564493186
 O   -1.768467869251    2.071312502576   -3.235564493186
 O   -0.365077869251    0.284753502576   -3.235564493186
 H    0.269458130749    1.023316502576   -3.235564493186
 K    2.421647381446   -1.167801864975    4.984182782816
