9

 C   -2.729386798657   -0.164330206977   -3.345867828181
 H   -3.708313798657    0.327457793023   -3.345867828181
 H   -2.622240798657   -0.804139206977   -2.457595828181
 H   -2.622240798657   -0.804139206977   -4.234139828181
 C   -1.644759798657    0.881253793023   -3.345867828181
 O   -1.805863798657    2.090804793023   -3.345867828181
 O   -0.402473798657    0.304245793023   -3.345867828181
 H    0.232062201343    1.042808793023   -3.345867828181
 K    2.479253449223   -1.197828507512    5.154098104957
