9

 C   -2.741852108459   -0.157832776828   -3.382635606512
 H   -3.720779108459    0.333955223172   -3.382635606512
 H   -2.634706108459   -0.797641776828   -2.494363606512
 H   -2.634706108459   -0.797641776828   -4.270907606512
 C   -1.657225108459    0.887751223172   -3.382635606512
 O   -1.818329108459    2.097302223172   -3.382635606512
 O   -0.414939108459    0.310743223172   -3.382635606512
 H    0.219596891541    1.049306223172   -3.382635606512
 K    2.498455471816   -1.207837388358    5.210736545671
