9

 C   -2.779248037865   -0.138340486381   -3.492938941507
 H   -3.758175037865    0.353447513619   -3.492938941507
 H   -2.672102037865   -0.778149486381   -2.604666941507
 H   -2.672102037865   -0.778149486381   -4.381210941507
 C   -1.694621037865    0.907243513619   -3.492938941507
 O   -1.855725037865    2.116794513619   -3.492938941507
 O   -0.452335037865    0.330235513619   -3.492938941507
 H    0.182200962135    1.068798513619   -3.492938941507
 K    2.556061539593   -1.237864030896    5.380651867812
