9

 C   -2.791713347666   -0.131843056232   -3.529706719839
 H   -3.770640347666    0.359944943768   -3.529706719839
 H   -2.684567347666   -0.771652056232   -2.641434719839
 H   -2.684567347666   -0.771652056232   -4.417978719839
 C   -1.707086347666    0.913740943768   -3.529706719839
 O   -1.868190347666    2.123291943768   -3.529706719839
 O   -0.464800347666    0.336732943768   -3.529706719839
 H    0.169735652334    1.075295943768   -3.529706719839
 K    2.575263562185   -1.247872911742    5.437290308526
