9

 C   -2.829109277072   -0.112350765785   -3.640010054834
 H   -3.808036277072    0.379437234215   -3.640010054834
 H   -2.721963277072   -0.752159765785   -2.751738054834
 H   -2.721963277072   -0.752159765785   -4.528282054834
 C   -1.744482277072    0.933233234215   -3.640010054834
 O   -1.905586277072    2.142784234215   -3.640010054834
 O   -0.502196277072    0.356225234215   -3.640010054834
 H    0.132339722928    1.094788234215   -3.640010054834
 K    2.632869629962   -1.277899554279    5.607205630667
