16

 N   -0.521251973955    1.506979539036    0.037977837593
 C    0.849363438454    1.706454216877    0.034346203217
 H    1.171147734792    2.750199147753    0.055765018910
 C   -1.120967243384    0.253864379483    0.013447846937
 O   -2.338741274916    0.086921673416    0.014443927711
 N   -0.195661227773   -0.782913230359   -0.014208690052
 H   -0.590234935636   -1.721427540208   -0.034717563450
 C    1.210069150622   -0.696874518041   -0.022656740843
 O    1.898389823050   -1.720491739843   -0.050764679396
 C    1.739838331687    0.671514350693    0.005949628291
 C    3.232128225293    0.855372676155    0.001118818465
 H    3.493675854373    1.923800553023    0.023772986612
 H    3.672272538883    0.397052456733   -0.897989432981
 H    3.683133432002    0.356886190849    0.873055655378
 H   -1.163558197284    2.291232577210    0.057873255883
NA   -2.792093351350   -1.023889768569   -0.009427292386
