16

 N   -0.509596299429    1.535538483179    0.038591566274
 C    0.861019112980    1.735013161020    0.034959931898
 H    1.182803409318    2.778758091896    0.056378747591
 C   -1.109311568858    0.282423323626    0.014061575618
 O   -2.327085600390    0.115480617559    0.015057656392
 N   -0.184005553247   -0.754354286216   -0.013594961371
 H   -0.578579261110   -1.692868596065   -0.034103834769
 C    1.221724825148   -0.668315573898   -0.022043012162
 O    1.910045497576   -1.691932795700   -0.050150950715
 C    1.751494006213    0.700073294836    0.006563356972
 C    3.243783899819    0.883931620298    0.001732547146
 H    3.505331528899    1.952359497166    0.024386715293
 H    3.683928213409    0.425611400876   -0.897375704300
 H    3.694789106528    0.385445134992    0.873669384059
 H   -1.151902522758    2.319791521353    0.058486984564
NA   -2.855996356229   -1.180466064757   -0.012792100388
