16

 N   -0.497940624903    1.564097427322    0.039205294955
 C    0.872674787506    1.763572105163    0.035573660579
 H    1.194459083844    2.807317036039    0.056992476272
 C   -1.097655894332    0.310982267769    0.014675304299
 O   -2.315429925864    0.144039561702    0.015671385073
 N   -0.172349878721   -0.725795342073   -0.012981232690
 H   -0.566923586584   -1.664309651922   -0.033490106088
 C    1.233380499674   -0.639756629755   -0.021429283481
 O    1.921701172102   -1.663373851557   -0.049537222034
 C    1.763149680739    0.728632238979    0.007177085653
 C    3.255439574345    0.912490564441    0.002346275827
 H    3.516987203425    1.980918441309    0.025000443974
 H    3.695583887935    0.454170345019   -0.896761975619
 H    3.706444781054    0.414004079135    0.874283112740
 H   -1.140246848232    2.348350465496    0.059100713245
NA   -2.919899361108   -1.337042360945   -0.016156908390
