16

 N   -0.468801438587    1.635494787679    0.040739616658
 C    0.901813973822    1.834969465520    0.037107982282
 H    1.223598270160    2.878714396396    0.058526797975
 C   -1.068516708016    0.382379628126    0.016209626002
 O   -2.286290739548    0.215436922059    0.017205706776
 N   -0.143210692405   -0.654397981716   -0.011446910987
 H   -0.537784400268   -1.592912291565   -0.031955784385
 C    1.262519685990   -0.568359269398   -0.019894961778
 O    1.950840358418   -1.591976491200   -0.048002900331
 C    1.792288867055    0.800029599336    0.008711407356
 C    3.284578760661    0.983887924798    0.003880597530
 H    3.546126389741    2.052315801666    0.026534765677
 H    3.724723074251    0.525567705376   -0.895227653916
 H    3.735583967370    0.485401439492    0.875817434443
 H   -1.111107661916    2.419747825853    0.060635034948
NA   -3.079656873307   -1.728483101415   -0.024568928394
