16

 N   -0.457145764061    1.664053731821    0.041353345339
 C    0.913469648348    1.863528409662    0.037721710963
 H    1.235253944686    2.907273340538    0.059140526656
 C   -1.056861033490    0.410938572268    0.016823354683
 O   -2.274635065022    0.243995866201    0.017819435457
 N   -0.131555017879   -0.625839037574   -0.010833182306
 H   -0.526128725742   -1.564353347423   -0.031342055704
 C    1.274175360516   -0.539800325256   -0.019281233097
 O    1.962496032944   -1.563417547058   -0.047389171650
 C    1.803944541581    0.828588543478    0.009325136037
 C    3.296234435187    1.012446868940    0.004494326211
 H    3.557782064267    2.080874745808    0.027148494358
 H    3.736378748777    0.554126649518   -0.894613925235
 H    3.747239641896    0.513960383634    0.876431163124
 H   -1.099451987390    2.448306769995    0.061248763629
NA   -3.143559878186   -1.885059397603   -0.027933736395
