16

 N   -0.445490089534    1.692612675964    0.041967074021
 C    0.925125322875    1.892087353805    0.038335439645
 H    1.246909619213    2.935832284681    0.059754255338
 C   -1.045205358963    0.439497516411    0.017437083365
 O   -2.262979390495    0.272554810344    0.018433164139
 N   -0.119899343352   -0.597280093431   -0.010219453624
 H   -0.514473051215   -1.535794403280   -0.030728327022
 C    1.285831035043   -0.511241381113   -0.018667504415
 O    1.974151707471   -1.534858602915   -0.046775442968
 C    1.815600216108    0.857147487621    0.009938864719
 C    3.307890109714    1.041005813083    0.005108054893
 H    3.569437738794    2.109433689951    0.027762223040
 H    3.748034423304    0.582685593661   -0.894000196553
 H    3.758895316423    0.542519327777    0.877044891806
 H   -1.087796312863    2.476865714138    0.061862492311
NA   -3.207462883065   -2.041635693791   -0.031298544397
