16

 N   -0.433834415008    1.721171620107    0.042580802702
 C    0.936780997401    1.920646297948    0.038949168326
 H    1.258565293739    2.964391228824    0.060367984019
 C   -1.033549684437    0.468056460554    0.018050812046
 O   -2.251323715969    0.301113754487    0.019046892820
 N   -0.108243668826   -0.568721149288   -0.009605724943
 H   -0.502817376689   -1.507235459137   -0.030114598341
 C    1.297486709569   -0.482682436970   -0.018053775734
 O    1.985807381997   -1.506299658772   -0.046161714287
 C    1.827255890634    0.885706431764    0.010552593400
 C    3.319545784240    1.069564757226    0.005721783574
 H    3.581093413320    2.137992634094    0.028375951721
 H    3.759690097830    0.611244537804   -0.893386467872
 H    3.770550990949    0.571078271920    0.877658620487
 H   -1.076140638337    2.505424658281    0.062476220992
NA   -3.271365887944   -2.198211989979   -0.034663352399
