16

 N   -0.428006577745    1.735451092178    0.042887667042
 C    0.942608834664    1.934925770019    0.039256032666
 H    1.264393131002    2.978670700895    0.060674848359
 C   -1.027721847174    0.482335932625    0.018357676386
 O   -2.245495878706    0.315393226558    0.019353757160
 N   -0.102415831563   -0.554441677217   -0.009298860603
 H   -0.496989539426   -1.492955987066   -0.029807734001
 C    1.303314546832   -0.468402964899   -0.017746911394
 O    1.991635219260   -1.492020186701   -0.045854849947
 C    1.833083727897    0.899985903835    0.010859457740
 C    3.325373621503    1.083844229297    0.006028647914
 H    3.586921250583    2.152272106165    0.028682816061
 H    3.765517935093    0.625524009875   -0.893079603532
 H    3.776378828212    0.585357743991    0.877965484827
 H   -1.070312801074    2.519704130352    0.062783085332
NA   -3.303317390384   -2.276500138073   -0.036345756399
