16

 N   -0.422178740482    1.749730564250    0.043194531383
 C    0.948436671927    1.949205242091    0.039562897007
 H    1.270220968265    2.992950172967    0.060981712700
 C   -1.021894009911    0.496615404697    0.018664540727
 O   -2.239668041443    0.329672698630    0.019660621501
 N   -0.096587994300   -0.540162205145   -0.008991996262
 H   -0.491161702163   -1.478676514994   -0.029500869660
 C    1.309142384095   -0.454123492827   -0.017440047053
 O    1.997463056523   -1.477740714629   -0.045547985606
 C    1.838911565160    0.914265375907    0.011166322081
 C    3.331201458766    1.098123701369    0.006335512255
 H    3.592749087846    2.166551578237    0.028989680402
 H    3.771345772356    0.639803481947   -0.892772739191
 H    3.782206665475    0.599637216063    0.878272349168
 H   -1.064484963811    2.533983602424    0.063089949673
NA   -3.335268892824   -2.354788286167   -0.038028160400
