16

 N   -0.416350903218    1.764010036321    0.043501395724
 C    0.954264509191    1.963484714162    0.039869761348
 H    1.276048805529    3.007229645038    0.061288577041
 C   -1.016066172647    0.510894876768    0.018971405068
 O   -2.233840204179    0.343952170701    0.019967485842
 N   -0.090760157036   -0.525882733074   -0.008685131921
 H   -0.485333864899   -1.464397042923   -0.029194005319
 C    1.314970221359   -0.439844020756   -0.017133182712
 O    2.003290893787   -1.463461242558   -0.045241121265
 C    1.844739402424    0.928544847978    0.011473186422
 C    3.337029296030    1.112403173440    0.006642376596
 H    3.598576925110    2.180831050308    0.029296544743
 H    3.777173609620    0.654082954018   -0.892465874850
 H    3.788034502739    0.613916688134    0.878579213509
 H   -1.058657126547    2.548263074495    0.063396814014
NA   -3.367220395263   -2.433076434261   -0.039710564401
