16

 N   -0.410523065955    1.778289508393    0.043808260064
 C    0.960092346454    1.977764186234    0.040176625688
 H    1.281876642792    3.021509117110    0.061595441381
 C   -1.010238335384    0.525174348840    0.019278269408
 O   -2.228012366916    0.358231642773    0.020274350182
 N   -0.084932319773   -0.511603261002   -0.008378267581
 H   -0.479506027636   -1.450117570851   -0.028887140979
 C    1.320798058622   -0.425564548684   -0.016826318372
 O    2.009118731050   -1.449181770486   -0.044934256925
 C    1.850567239687    0.942824320050    0.011780050762
 C    3.342857133293    1.126682645512    0.006949240936
 H    3.604404762373    2.195110522380    0.029603409083
 H    3.783001446883    0.668362426090   -0.892159010510
 H    3.793862340002    0.628196160206    0.878886077849
 H   -1.052829289284    2.562542546567    0.063703678354
NA   -3.399171897703   -2.511364582355   -0.041392968402
