16

 N   -0.387211716903    1.835407396678    0.045035717427
 C    0.983403695506    2.034882074519    0.041404083051
 H    1.305187991844    3.078627005395    0.062822898744
 C   -0.986926986332    0.582292237125    0.020505726771
 O   -2.204701017864    0.415349531058    0.021501807545
 N   -0.061620970721   -0.454485372717   -0.007150810218
 H   -0.456194678584   -1.392999682566   -0.027659683616
 C    1.344109407674   -0.368446660399   -0.015598861009
 O    2.032430080102   -1.392063882201   -0.043706799562
 C    1.873878588739    0.999942208335    0.013007508125
 C    3.366168482345    1.183800533797    0.008176698299
 H    3.627716111425    2.252228410665    0.030830866446
 H    3.806312795935    0.725480314375   -0.890931553147
 H    3.817173689054    0.685314048491    0.880113535212
 H   -1.029517940232    2.619660434852    0.064931135717
NA   -3.526977907461   -2.824517174731   -0.048122584405
