16

 N   -0.358072530587    1.906804757035    0.046570039130
 C    1.012542881822    2.106279434876    0.042938404754
 H    1.334327178160    3.150024365752    0.064357220447
 C   -0.957787800016    0.653689597482    0.022040048474
 O   -2.175561831548    0.486746891415    0.023036129248
 N   -0.032481784405   -0.383088012360   -0.005616488515
 H   -0.427055492268   -1.321602322209   -0.026125361913
 C    1.373248593990   -0.297049300042   -0.014064539306
 O    2.061569266418   -1.320666521844   -0.042172477859
 C    1.903017775055    1.071339568692    0.014541829828
 C    3.395307668661    1.255197894154    0.009711020002
 H    3.656855297741    2.323625771022    0.032365188149
 H    3.835451982251    0.796877674732   -0.889397231444
 H    3.846312875370    0.756711408848    0.881647856915
 H   -1.000378753916    2.691057795209    0.066465457420
NA   -3.686735419660   -3.215957915201   -0.056534604409
