16

 N   -0.346416856061    1.935363701178    0.047183767811
 C    1.024198556348    2.134838379019    0.043552133435
 H    1.345982852686    3.178583309895    0.064970949128
 C   -0.946132125490    0.682248541625    0.022653777155
 O   -2.163906157022    0.515305835558    0.023649857929
 N   -0.020826109879   -0.354529068217   -0.005002759834
 H   -0.415399817742   -1.293043378066   -0.025511633232
 C    1.384904268516   -0.268490355899   -0.013450810625
 O    2.073224940944   -1.292107577701   -0.041558749178
 C    1.914673449581    1.099898512835    0.015155558509
 C    3.406963343187    1.283756838297    0.010324748683
 H    3.668510972267    2.352184715165    0.032978916830
 H    3.847107656777    0.825436618875   -0.888783502763
 H    3.857968549896    0.785270352991    0.882261585596
 H   -0.988723079390    2.719616739352    0.067079186101
NA   -3.750638424539   -3.372534211389   -0.059899412411
