16

 N   -0.323105507008    1.992481589464    0.048411225173
 C    1.047509905401    2.191956267305    0.044779590797
 H    1.369294201739    3.235701198181    0.066198406490
 C   -0.922820776437    0.739366429911    0.023881234517
 O   -2.140594807969    0.572423723844    0.024877315291
 N    0.002485239174   -0.297411179931   -0.003775302472
 H   -0.392088468689   -1.235925489780   -0.024284175870
 C    1.408215617569   -0.211372467613   -0.012223353263
 O    2.096536289997   -1.234989689415   -0.040331291816
 C    1.937984798634    1.157016401121    0.016383015871
 C    3.430274692240    1.340874726583    0.011552206045
 H    3.691822321320    2.409302603451    0.034206374192
 H    3.870419005830    0.882554507161   -0.887556045401
 H    3.881279898949    0.842388241277    0.883489042958
 H   -0.965411730337    2.776734627638    0.068306643463
NA   -3.878444434298   -3.685686803765   -0.066629028414
