16

 N   -0.311449832482    2.021040533606    0.049024953855
 C    1.059165579927    2.220515211447    0.045393319479
 H    1.380949876265    3.264260142323    0.066812135172
 C   -0.911165101911    0.767925374053    0.024494963199
 O   -2.128939133443    0.600982667986    0.025491043973
 N    0.014140913700   -0.268852235789   -0.003161573790
 H   -0.380432794163   -1.207366545638   -0.023670447188
 C    1.419871292095   -0.182813523471   -0.011609624581
 O    2.108191964523   -1.206430745273   -0.039717563134
 C    1.949640473160    1.185575345263    0.016996744553
 C    3.441930366766    1.369433670725    0.012165934727
 H    3.703477995846    2.437861547593    0.034820102874
 H    3.882074680356    0.911113451303   -0.886942316719
 H    3.892935573475    0.870947185419    0.884102771640
 H   -0.953756055811    2.805293571780    0.068920372145
NA   -3.942347439177   -3.842263099953   -0.069993836416
