16

 N   -0.305621995218    2.035320005678    0.049331818195
 C    1.064993417191    2.234794683519    0.045700183819
 H    1.386777713529    3.278539614395    0.067118999512
 C   -0.905337264647    0.782204846125    0.024801827539
 O   -2.123111296179    0.615262140058    0.025797908313
 N    0.019968750964   -0.254572763717   -0.002854709450
 H   -0.374604956899   -1.193087073566   -0.023363582848
 C    1.425699129359   -0.168534051399   -0.011302760241
 O    2.114019801787   -1.192151273201   -0.039410698794
 C    1.955468310424    1.199854817335    0.017303608893
 C    3.447758204030    1.383713142797    0.012472799067
 H    3.709305833110    2.452141019665    0.035126967214
 H    3.887902517620    0.925392923375   -0.886635452379
 H    3.898763410739    0.885226657491    0.884409635980
 H   -0.947928218547    2.819573043852    0.069227236485
NA   -3.974298941616   -3.920551248047   -0.071676240416
