16

 N   -0.276482808903    2.106717366035    0.050866139898
 C    1.094132603506    2.306192043876    0.047234505522
 H    1.415916899844    3.349936974752    0.068653321215
 C   -0.876198078332    0.853602206482    0.026336149242
 O   -2.093972109864    0.686659500415    0.027332230016
 N    0.049107937279   -0.183175403360   -0.001320387747
 H   -0.345465770584   -1.121689713209   -0.021829261145
 C    1.454838315674   -0.097136691042   -0.009768438538
 O    2.143158988102   -1.120753912844   -0.037876377091
 C    1.984607496739    1.271252177692    0.018837930596
 C    3.476897390345    1.455110503154    0.014007120770
 H    3.738445019425    2.523538380022    0.036661288917
 H    3.917041703935    0.996790283732   -0.885101130676
 H    3.927902597054    0.956624017848    0.885943957683
 H   -0.918789032232    2.890970404209    0.070761558188
NA   -4.134056453815   -4.311991988517   -0.080088260420
