16

 N   -0.270654971639    2.120996838106    0.051173004239
 C    1.099960440770    2.320471515947    0.047541369863
 H    1.421744737108    3.364216446823    0.068960185556
 C   -0.870370241068    0.867881678553    0.026643013583
 O   -2.088144272600    0.700938972486    0.027639094357
 N    0.054935774543   -0.168895931289   -0.001013523406
 H   -0.339637933320   -1.107410241138   -0.021522396804
 C    1.460666152938   -0.082857218971   -0.009461574197
 O    2.148986825366   -1.106474440773   -0.037569512750
 C    1.990435334003    1.285531649763    0.019144794937
 C    3.482725227609    1.469389975225    0.014313985111
 H    3.744272856689    2.537817852093    0.036968153258
 H    3.922869541199    1.011069755803   -0.884794266335
 H    3.933730434318    0.970903489919    0.886250822024
 H   -0.912961194968    2.905249876280    0.071068422529
NA   -4.166007956254   -4.390280136611   -0.081770664421
