16

 N   -0.253171459850    2.163835254320    0.052093597261
 C    1.117443952559    2.363309932161    0.048461962885
 H    1.439228248897    3.407054863037    0.069880778578
 C   -0.852886729279    0.910720094767    0.027563606605
 O   -2.070660760811    0.743777388700    0.028559687379
 N    0.072419286332   -0.126057515075   -0.000092930384
 H   -0.322154421531   -1.064571824924   -0.020601803782
 C    1.478149664727   -0.040018802757   -0.008540981175
 O    2.166470337155   -1.063636024559   -0.036648919728
 C    2.007918845792    1.328370065977    0.020065387959
 C    3.500208739398    1.512228391439    0.015234578133
 H    3.761756368478    2.580656268307    0.037888746280
 H    3.940353052988    1.053908172017   -0.883873673313
 H    3.951213946107    1.013741906133    0.887171415046
 H   -0.895477683179    2.948088292494    0.071989015551
NA   -4.261862463573   -4.625144580893   -0.086817876424
