16

 N   -0.247343622587    2.178114726392    0.052400461601
 C    1.123271789822    2.377589404233    0.048768827225
 H    1.445056086160    3.421334335109    0.070187642918
 C   -0.847058892016    0.924999566839    0.027870470945
 O   -2.064832923548    0.758056860772    0.028866551719
 N    0.078247123595   -0.111778043003    0.000213933956
 H   -0.316326584268   -1.050292352852   -0.020294939442
 C    1.483977501990   -0.025739330685   -0.008234116835
 O    2.172298174418   -1.049356552487   -0.036342055388
 C    2.013746683055    1.342649538049    0.020372252299
 C    3.506036576661    1.526507863511    0.015541442473
 H    3.767584205741    2.594935740379    0.038195610620
 H    3.946180890251    1.068187644089   -0.883566808973
 H    3.957041783370    1.028021378205    0.887478279386
 H   -0.889649845916    2.962367764566    0.072295879891
NA   -4.293813966013   -4.703432728987   -0.088500280424
