16

 N   -0.241515785324    2.192394198463    0.052707325942
 C    1.129099627085    2.391868876304    0.049075691566
 H    1.450883923423    3.435613807180    0.070494507259
 C   -0.841231054753    0.939279038910    0.028177335286
 O   -2.059005086285    0.772336332843    0.029173416060
 N    0.084074960858   -0.097498570932    0.000520798297
 H   -0.310498747005   -1.036012880781   -0.019988075101
 C    1.489805339253   -0.011459858614   -0.007927252494
 O    2.178126011681   -1.035077080416   -0.036035191047
 C    2.019574520318    1.356929010120    0.020679116640
 C    3.511864413924    1.540787335582    0.015848306814
 H    3.773412043004    2.609215212450    0.038502474961
 H    3.952008727514    1.082467116160   -0.883259944632
 H    3.962869620633    1.042300850276    0.887785143727
 H   -0.883822008653    2.976647236637    0.072602744232
NA   -4.325765468452   -4.781720877081   -0.090182684425
