16

 N   -0.229860110797    2.220953142606    0.053321054623
 C    1.140755301612    2.420427820447    0.049689420247
 H    1.462539597950    3.464172751323    0.071108235940
 C   -0.829575380226    0.967837983053    0.028791063967
 O   -2.047349411758    0.800895276986    0.029787144741
 N    0.095730635385   -0.068939626789    0.001134526978
 H   -0.298843072478   -1.007453936638   -0.019374346420
 C    1.501461013780    0.017099085529   -0.007313523813
 O    2.189781686208   -1.006518136273   -0.035421462366
 C    2.031230194845    1.385487954263    0.021292845321
 C    3.523520088451    1.569346279725    0.016462035495
 H    3.785067717531    2.637774156593    0.039116203642
 H    3.963664402041    1.111026060303   -0.882646215951
 H    3.974525295160    1.070859794419    0.888398872408
 H   -0.872166334126    3.005206180780    0.073216472913
NA   -4.389668473332   -4.938297173269   -0.093547492427
