16

 N   -0.224032273534    2.235232614677    0.053627918964
 C    1.146583138875    2.434707292518    0.049996284588
 H    1.468367435213    3.478452223394    0.071415100281
 C   -0.823747542963    0.982117455124    0.029097928308
 O   -2.041521574495    0.815174749057    0.030094009082
 N    0.101558472648   -0.054660154718    0.001441391319
 H   -0.293015235215   -0.993174464567   -0.019067482079
 C    1.507288851043    0.031378557600   -0.007006659472
 O    2.195609523471   -0.992238664202   -0.035114598025
 C    2.037058032108    1.399767426334    0.021599709662
 C    3.529347925714    1.583625751796    0.016768899836
 H    3.790895554794    2.652053628664    0.039423067983
 H    3.969492239304    1.125305532374   -0.882339351610
 H    3.980353132423    1.085139266490    0.888705736749
 H   -0.866338496863    3.019485652851    0.073523337254
NA   -4.421619975771   -5.016585321363   -0.095229896428
