16

 N   -0.218204436271    2.249512086749    0.053934783304
 C    1.152410976138    2.448986764590    0.050303148928
 H    1.474195272476    3.492731695466    0.071721964621
 C   -0.817919705700    0.996396927196    0.029404792648
 O   -2.035693737232    0.829454221129    0.030400873422
 N    0.107386309911   -0.040380682646    0.001748255659
 H   -0.287187397952   -0.978894992495   -0.018760617739
 C    1.513116688306    0.045658029672   -0.006699795132
 O    2.201437360734   -0.977959192130   -0.034807733685
 C    2.042885869371    1.414046898406    0.021906574002
 C    3.535175762977    1.597905223868    0.017075764176
 H    3.796723392057    2.666333100736    0.039729932323
 H    3.975320076567    1.139585004446   -0.882032487270
 H    3.986180969686    1.099418738562    0.889012601089
 H   -0.860510659600    3.033765124923    0.073830201594
NA   -4.453571478211   -5.094873469457   -0.096912300428
