16

 N   -0.206548761745    2.278071030891    0.054548511986
 C    1.164066650664    2.477545708732    0.050916877610
 H    1.485850947002    3.521290639608    0.072335693303
 C   -0.806264031174    1.024955871338    0.030018521330
 O   -2.024038062706    0.858013165271    0.031014602104
 N    0.119041984437   -0.011821738504    0.002361984341
 H   -0.275531723426   -0.950336048353   -0.018146889057
 C    1.524772362832    0.074216973814   -0.006086066450
 O    2.213093035260   -0.949400247988   -0.034194005003
 C    2.054541543897    1.442605842548    0.022520302684
 C    3.546831437503    1.626464168010    0.017689492858
 H    3.808379066583    2.694892044878    0.040343661005
 H    3.986975751093    1.168143948588   -0.881418758588
 H    3.997836644212    1.127977682704    0.889626329771
 H   -0.848854985074    3.062324069065    0.074443930276
NA   -4.517474483090   -5.251449765645   -0.100277108430
