16

 N   -0.189065249955    2.320909447106    0.055469105007
 C    1.181550162454    2.520384124947    0.051837470631
 H    1.503334458792    3.564129055823    0.073256286324
 C   -0.788780519384    1.067794287553    0.030939114351
 O   -2.006554550916    0.900851581486    0.031935195125
 N    0.136525496227    0.031016677711    0.003282577362
 H   -0.258048211636   -0.907497632138   -0.017226296036
 C    1.542255874622    0.117055390029   -0.005165473429
 O    2.230576547050   -0.906561831773   -0.033273411982
 C    2.072025055687    1.485444258763    0.023440895705
 C    3.564314949293    1.669302584225    0.018610085879
 H    3.825862578373    2.737730461093    0.041264254026
 H    4.004459262883    1.210982364803   -0.880498165567
 H    4.015320156002    1.170816098919    0.890546922792
 H   -0.831371473284    3.105162485280    0.075364523297
NA   -4.613328990409   -5.486314209927   -0.105324320433
