16

 N   -0.124959040060    2.477983639891    0.058844612754
 C    1.245656372349    2.677458317732    0.055212978378
 H    1.567440668687    3.721203248608    0.076631794071
 C   -0.724674309489    1.224868480338    0.034314622098
 O   -1.942448341021    1.057925774271    0.035310702872
 N    0.200631706122    0.188090870496    0.006658085109
 H   -0.193942001741   -0.750423439353   -0.013850788289
 C    1.606362084517    0.274129582814   -0.001789965682
 O    2.294682756945   -0.749487638988   -0.029897904235
 C    2.136131265582    1.642518451548    0.026816403452
 C    3.628421159188    1.826376777010    0.021985593626
 H    3.889968788268    2.894804653878    0.044639761773
 H    4.068565472778    1.368056557588   -0.877122657820
 H    4.079426365897    1.327890291704    0.893922430539
 H   -0.767265263389    3.262236678065    0.078740031044
NA   -4.964795517245   -6.347483838961   -0.123830764441
