16

 N   -0.101647691008    2.535101528177    0.060072070117
 C    1.268967721401    2.734576206018    0.056440435741
 H    1.590752017739    3.778321136894    0.077859251434
 C   -0.701362960437    1.281986368624    0.035542079461
 O   -1.919136991969    1.115043662557    0.036538160235
 N    0.223943055174    0.245208758782    0.007885542472
 H   -0.170630652689   -0.693305551067   -0.012623330926
 C    1.629673433569    0.331247471100   -0.000562508319
 O    2.317994105997   -0.692369750702   -0.028670446872
 C    2.159442614634    1.699636339834    0.028043860815
 C    3.651732508240    1.883494665296    0.023213050989
 H    3.913280137320    2.951922542164    0.045867219136
 H    4.091876821830    1.425174445874   -0.875895200457
 H    4.102737714949    1.385008179990    0.895149887902
 H   -0.743953914337    3.319354566351    0.079967488407
NA   -5.092601527004   -6.660636431337   -0.130560380445
