16

 N   -0.095819853745    2.549381000248    0.060378934457
 C    1.274795558664    2.748855678089    0.056747300081
 H    1.596579855002    3.792600608965    0.078166115774
 C   -0.695535123174    1.296265840695    0.035848943801
 O   -1.913309154706    1.129323134628    0.036845024575
 N    0.229770892437    0.259488230853    0.008192406812
 H   -0.164802815426   -0.679026078996   -0.012316466586
 C    1.635501270832    0.345526943171   -0.000255643979
 O    2.323821943260   -0.678090278631   -0.028363582532
 C    2.165270451897    1.713915811905    0.028350725155
 C    3.657560345503    1.897774137367    0.023519915329
 H    3.919107974583    2.966202014235    0.046174083476
 H    4.097704659093    1.439453917945   -0.875588336117
 H    4.108565552212    1.399287652061    0.895456752242
 H   -0.738126077074    3.333634038422    0.080274352747
NA   -5.124553029443   -6.738924579431   -0.132242784446
