16

 N   -0.089992016482    2.563660472319    0.060685798798
 C    1.280623395927    2.763135150160    0.057054164422
 H    1.602407692265    3.806880081036    0.078472980115
 C   -0.689707285911    1.310545312766    0.036155808142
 O   -1.907481317443    1.143602606699    0.037151888916
 N    0.235598729700    0.273767702924    0.008499271153
 H   -0.158974978163   -0.664746606925   -0.012009602245
 C    1.641329108095    0.359806415242    0.000051220362
 O    2.329649780523   -0.663810806560   -0.028056718191
 C    2.171098289160    1.728195283976    0.028657589496
 C    3.663388182766    1.912053609438    0.023826779670
 H    3.924935811846    2.980481486306    0.046480947817
 H    4.103532496356    1.453733390016   -0.875281471776
 H    4.114393389475    1.413567124132    0.895763616583
 H   -0.732298239811    3.347913510493    0.080581217088
NA   -5.156504531883   -6.817212727525   -0.133925188446
