16

 N   -0.084164179218    2.577939944391    0.060992663138
 C    1.286451233191    2.777414622232    0.057361028762
 H    1.608235529529    3.821159553108    0.078779844455
 C   -0.683879448647    1.324824784838    0.036462672482
 O   -1.901653480179    1.157882078771    0.037458753256
 N    0.241426566964    0.288047174996    0.008806135493
 H   -0.153147140899   -0.650467134853   -0.011702737905
 C    1.647156945359    0.374085887314    0.000358084702
 O    2.335477617787   -0.649531334488   -0.027749853851
 C    2.176926126424    1.742474756048    0.028964453836
 C    3.669216020030    1.926333081510    0.024133644010
 H    3.930763649110    2.994760958378    0.046787812157
 H    4.109360333620    1.468012862088   -0.874974607436
 H    4.120221226739    1.427846596204    0.896070480923
 H   -0.726470402547    3.362192982565    0.080888081428
NA   -5.188456034323   -6.895500875619   -0.135607592447
