16

 N   -0.049197155639    2.663616776819    0.062833849182
 C    1.321418256770    2.863091454660    0.059202214806
 H    1.643202553108    3.906836385536    0.080621030499
 C   -0.648912425068    1.410501617266    0.038303858526
 O   -1.866686456600    1.243558911199    0.039299939300
 N    0.276393590543    0.373724007424    0.010647321537
 H   -0.118180117320   -0.564790302425   -0.009861551861
 C    1.682123968938    0.459762719742    0.002199270746
 O    2.370444641366   -0.563854502060   -0.025908667807
 C    2.211893150003    1.828151588476    0.030805639880
 C    3.704183043609    2.012009913938    0.025974830054
 H    3.965730672689    3.080437790806    0.048628998201
 H    4.144327357199    1.553689694516   -0.873133421392
 H    4.155188250318    1.513523428632    0.897911666967
 H   -0.691503378968    3.447869814993    0.082729267472
NA   -5.380165048960   -7.365229764183   -0.145702016452
