16

 N   -0.043369318376    2.677896248891    0.063140713523
 C    1.327246094033    2.877370926732    0.059509079147
 H    1.649030390371    3.921115857608    0.080927894840
 C   -0.643084587805    1.424781089338    0.038610722867
 O   -1.860858619337    1.257838383271    0.039606803641
 N    0.282221427806    0.388003479496    0.010954185878
 H   -0.112352280057   -0.550510830353   -0.009554687520
 C    1.687951806201    0.474042191814    0.002506135087
 O    2.376272478629   -0.549575029988   -0.025601803466
 C    2.217720987266    1.842431060548    0.031112504221
 C    3.710010880872    2.026289386010    0.026281694395
 H    3.971558509952    3.094717262878    0.048935862542
 H    4.150155194462    1.567969166588   -0.872826557051
 H    4.161016087581    1.527802900704    0.898218531308
 H   -0.685675541705    3.462149287065    0.083036131813
NA   -5.412116551400   -7.443517912277   -0.147384420453
