16

 N   -0.031713643850    2.706455193033    0.063754442204
 C    1.338901768559    2.905929870874    0.060122807828
 H    1.660686064897    3.949674801750    0.081541623521
 C   -0.631428913279    1.453340033480    0.039224451548
 O   -1.849202944811    1.286397327413    0.040220532322
 N    0.293877102332    0.416562423638    0.011567914559
 H   -0.100696605531   -0.521951886211   -0.008940958839
 C    1.699607480727    0.502601135956    0.003119863768
 O    2.387928153155   -0.521016085846   -0.024988074785
 C    2.229376661792    1.870990004690    0.031726232902
 C    3.721666555398    2.054848330152    0.026895423076
 H    3.983214184478    3.123276207020    0.049549591223
 H    4.161810868988    1.596528110730   -0.872212828370
 H    4.172671762107    1.556361844846    0.898832259989
 H   -0.674019867179    3.490708231207    0.083649860494
NA   -5.476019556279   -7.600094208465   -0.150749228454
