16

 N   -0.025885806587    2.720734665105    0.064061306544
 C    1.344729605822    2.920209342946    0.060429672168
 H    1.666513902160    3.963954273822    0.081848487861
 C   -0.625601076016    1.467619505552    0.039531315888
 O   -1.843375107548    1.300676799485    0.040527396662
 N    0.299704939595    0.430841895710    0.011874778899
 H   -0.094868768268   -0.507672414139   -0.008634094499
 C    1.705435317990    0.516880608028    0.003426728108
 O    2.393755990418   -0.506736613774   -0.024681210445
 C    2.235204499055    1.885269476762    0.032033097242
 C    3.727494392661    2.069127802224    0.027202287416
 H    3.989042021741    3.137555679092    0.049856455563
 H    4.167638706251    1.610807582802   -0.871905964030
 H    4.178499599370    1.570641316918    0.899139124329
 H   -0.668192029916    3.504987703279    0.083956724834
NA   -5.507971058719   -7.678382356559   -0.152431632455
