14

 P   -0.950748457295    0.499516224057   -0.326509426014
 O   -1.537748457295    1.549516224057    0.628490573986
 O   -1.216748457295    0.547516224057   -1.838509426014
 O    0.712251542705    0.325516224057   -0.039509426014
 O   -1.265748457295   -1.058483775943    0.265490573986
 C    1.449251542705    1.490516224057   -0.416509426014
 H    1.118251542705    2.373516224057    0.159490573986
 H    1.334251542705    1.701516224057   -1.494509426014
 H    2.509251542705    1.288516224057   -0.196509426014
 C   -2.656748457295   -1.381483775943    0.215490573986
 H   -3.034748457295   -1.354483775943   -0.822509426014
 H   -3.249748457295   -0.682483775943    0.831490573986
 H   -2.766748457295   -2.401483775943    0.615490573986
RB    1.189125676468   -0.465550472428    0.343641382754
