14

 P   -1.027908801125    0.627514314058   -0.388504921366
 O   -1.614908801125    1.677514314058    0.566495078634
 O   -1.293908801125    0.675514314058   -1.900504921366
 O    0.635091198875    0.453514314058   -0.101504921366
 O   -1.342908801125   -0.930485685942    0.203495078634
 C    1.372091198875    1.618514314058   -0.478504921366
 H    1.041091198875    2.501514314058    0.097495078634
 H    1.257091198875    1.829514314058   -1.556504921366
 H    2.432091198875    1.416514314058   -0.258504921366
 C   -2.733908801125   -1.253485685942    0.153495078634
 H   -3.111908801125   -1.226485685942   -0.884504921366
 H   -3.326908801125   -0.554485685942    0.769495078634
 H   -2.843908801125   -2.273485685942    0.553495078634
RB    1.302714986144   -0.653979061021    0.434906210910
