14

 P   -1.066488973039    0.691513359058   -0.419502669042
 O   -1.653488973039    1.741513359058    0.535497330958
 O   -1.332488973039    0.739513359058   -1.931502669042
 O    0.596511026961    0.517513359058   -0.132502669042
 O   -1.381488973039   -0.866486640942    0.172497330958
 C    1.333511026961    1.682513359058   -0.509502669042
 H    1.002511026961    2.565513359058    0.066497330958
 H    1.218511026961    1.893513359058   -1.587502669042
 H    2.393511026961    1.480513359058   -0.289502669042
 C   -2.772488973039   -1.189486640942    0.122497330958
 H   -3.150488973039   -1.162486640942   -0.915502669042
 H   -3.365488973039   -0.490486640942    0.738497330958
 H   -2.882488973039   -2.209486640942    0.522497330958
RB    1.359509640982   -0.748193355317    0.480538624988
