14

 P   -2.686856193453    3.379473249082   -1.721408071427
 O   -3.273856193453    4.429473249082   -0.766408071427
 O   -2.952856193453    3.427473249082   -3.233408071427
 O   -1.023856193453    3.205473249082   -1.434408071427
 O   -3.001856193453    1.821473249082   -1.129408071427
 C   -0.286856193453    4.370473249082   -1.811408071427
 H   -0.617856193453    5.253473249082   -1.235408071427
 H   -0.401856193453    4.581473249082   -2.889408071427
 H    0.773143806547    4.168473249082   -1.591408071427
 C   -4.392856193453    1.498473249082   -1.179408071427
 H   -4.770856193453    1.525473249082   -2.217408071427
 H   -4.985856193453    2.197473249082   -0.563408071427
 H   -4.502856193453    0.478473249082   -0.779408071427
RB    3.744885144179   -4.705193715767    2.397100016261
