14

 P   -1.182229488783    0.883510494060   -0.512495912069
 O   -1.769229488783    1.933510494060    0.442504087931
 O   -1.448229488783    0.931510494060   -2.024495912069
 O    0.480770511217    0.709510494060   -0.225495912069
 O   -1.497229488783   -0.674489505940    0.079504087931
 C    1.217770511217    1.874510494060   -0.602495912069
 H    0.886770511217    2.757510494060   -0.026495912069
 H    1.102770511217    2.085510494060   -1.680495912069
 H    2.277770511217    1.672510494060   -0.382495912069
 C   -2.888229488783   -0.997489505940    0.029504087931
 H   -3.266229488783   -0.970489505940   -1.008495912069
 H   -3.481229488783   -0.298489505940    0.645504087931
 H   -2.998229488783   -2.017489505940    0.429504087931
RB    1.529893605496   -1.030836238207    0.617435867222
