14

 P   -1.297970004527    1.075507629062   -0.605489155097
 O   -1.884970004527    2.125507629062    0.349510844903
 O   -1.563970004527    1.123507629062   -2.117489155097
 O    0.365029995473    0.901507629062   -0.318489155097
 O   -1.612970004527   -0.482492370938   -0.013489155097
 C    1.102029995473    2.066507629062   -0.695489155097
 H    0.771029995473    2.949507629062   -0.119489155097
 H    0.987029995473    2.277507629062   -1.773489155097
 H    2.162029995473    1.864507629062   -0.475489155097
 C   -3.003970004527   -0.805492370938   -0.063489155097
 H   -3.381970004527   -0.778492370938   -1.101489155097
 H   -3.596970004527   -0.106492370938    0.552510844903
 H   -3.113970004527   -1.825492370938    0.336510844903
RB    1.700277570010   -1.313479121096    0.754333109456
