14

 P   -1.317260090484    1.107507151562   -0.620988028935
 O   -1.904260090484    2.157507151562    0.334011971065
 O   -1.583260090484    1.155507151562   -2.132988028935
 O    0.345739909516    0.933507151562   -0.333988028935
 O   -1.632260090484   -0.450492848438   -0.028988028935
 C    1.082739909516    2.098507151562   -0.710988028935
 H    0.751739909516    2.981507151562   -0.134988028935
 H    0.967739909516    2.309507151562   -1.788988028935
 H    2.142739909516    1.896507151562   -0.490988028935
 C   -3.023260090484   -0.773492848438   -0.078988028935
 H   -3.401260090484   -0.746492848438   -1.116988028935
 H   -3.616260090484   -0.074492848438    0.537011971065
 H   -3.133260090484   -1.793492848438    0.321011971065
RB    1.728674897429   -1.360586268244    0.777149316495
