14

 P   -1.336550176441    1.139506674062   -0.636486902773
 O   -1.923550176441    2.189506674062    0.318513097227
 O   -1.602550176441    1.187506674062   -2.148486902773
 O    0.326449823559    0.965506674062   -0.349486902773
 O   -1.651550176441   -0.418493325938   -0.044486902773
 C    1.063449823559    2.130506674062   -0.726486902773
 H    0.732449823559    3.013506674062   -0.150486902773
 H    0.948449823559    2.341506674062   -1.804486902773
 H    2.123449823559    1.928506674062   -0.506486902773
 C   -3.042550176441   -0.741493325938   -0.094486902773
 H   -3.420550176441   -0.714493325938   -1.132486902773
 H   -3.635550176441   -0.042493325938    0.521513097227
 H   -3.152550176441   -1.761493325938    0.305513097227
RB    1.757072224848   -1.407693415392    0.799965523533
