14

 P   -1.355840262399    1.171506196563   -0.651985776611
 O   -1.942840262399    2.221506196563    0.303014223389
 O   -1.621840262399    1.219506196563   -2.163985776611
 O    0.307159737601    0.997506196563   -0.364985776611
 O   -1.670840262399   -0.386493803437   -0.059985776611
 C    1.044159737601    2.162506196563   -0.741985776611
 H    0.713159737601    3.045506196563   -0.165985776611
 H    0.929159737601    2.373506196563   -1.819985776611
 H    2.104159737601    1.960506196563   -0.521985776611
 C   -3.061840262399   -0.709493803437   -0.109985776611
 H   -3.439840262399   -0.682493803437   -1.147985776611
 H   -3.654840262399   -0.010493803437    0.506014223389
 H   -3.171840262399   -1.729493803437    0.290014223389
RB    1.785469552267   -1.454800562541    0.822781730572
