14

 P   -1.394420434313    1.235505241563   -0.682983524287
 O   -1.981420434313    2.285505241563    0.272016475713
 O   -1.660420434313    1.283505241563   -2.194983524287
 O    0.268579565687    1.061505241563   -0.395983524287
 O   -1.709420434313   -0.322494758437   -0.090983524287
 C    1.005579565687    2.226505241563   -0.772983524287
 H    0.674579565687    3.109505241563   -0.196983524287
 H    0.890579565687    2.437505241563   -1.850983524287
 H    2.065579565687    2.024505241563   -0.552983524287
 C   -3.100420434313   -0.645494758437   -0.140983524287
 H   -3.478420434313   -0.618494758437   -1.178983524287
 H   -3.693420434313    0.053505241563    0.475016475713
 H   -3.210420434313   -1.665494758437    0.259016475713
RB    1.842264207105   -1.549014856837    0.868414144650
