14

 P   -1.490870864100    1.395502854064   -0.760477893476
 O   -2.077870864100    2.445502854064    0.194522106524
 O   -1.756870864100    1.443502854064   -2.272477893476
 O    0.172129135900    1.221502854064   -0.473477893476
 O   -1.805870864100   -0.162497145936   -0.168477893476
 C    0.909129135900    2.386502854064   -0.850477893476
 H    0.578129135900    3.269502854064   -0.274477893476
 H    0.794129135900    2.597502854064   -1.928477893476
 H    1.969129135900    2.184502854064   -0.630477893476
 C   -3.196870864100   -0.485497145936   -0.218477893476
 H   -3.574870864100   -0.458497145936   -1.256477893476
 H   -3.789870864100    0.213502854064    0.397522106524
 H   -3.306870864100   -1.505497145936    0.181522106524
RB    1.984250844200   -1.784550592578    0.982495179845
