14

 P   -1.510160950057    1.427502376565   -0.775976767314
 O   -2.097160950057    2.477502376565    0.179023232686
 O   -1.776160950057    1.475502376565   -2.287976767314
 O    0.152839049943    1.253502376565   -0.488976767314
 O   -1.825160950057   -0.130497623435   -0.183976767314
 C    0.889839049943    2.418502376565   -0.865976767314
 H    0.558839049943    3.301502376565   -0.289976767314
 H    0.774839049943    2.629502376565   -1.943976767314
 H    1.949839049943    2.216502376565   -0.645976767314
 C   -3.216160950057   -0.453497623435   -0.233976767314
 H   -3.594160950057   -0.426497623435   -1.271976767314
 H   -3.809160950057    0.245502376565    0.382023232686
 H   -3.326160950057   -1.473497623435    0.166023232686
RB    2.012648171619   -1.831657739726    1.005311386884
