14

 P   -1.548741121972    1.491501421565   -0.806974514990
 O   -2.135741121972    2.541501421565    0.148025485010
 O   -1.814741121972    1.539501421565   -2.318974514990
 O    0.114258878028    1.317501421565   -0.519974514990
 O   -1.863741121972   -0.066498578435   -0.214974514990
 C    0.851258878028    2.482501421565   -0.896974514990
 H    0.520258878028    3.365501421565   -0.320974514990
 H    0.736258878028    2.693501421565   -1.974974514990
 H    1.911258878028    2.280501421565   -0.676974514990
 C   -3.254741121972   -0.389498578435   -0.264974514990
 H   -3.632741121972   -0.362498578435   -1.302974514990
 H   -3.847741121972    0.309501421565    0.351025485010
 H   -3.364741121972   -1.409498578435    0.135025485010
RB    2.069442826457   -1.925872034023    1.050943800962
