14

 P   -1.606611379844    1.587499989066   -0.853471136504
 O   -2.193611379844    2.637499989066    0.101528863496
 O   -1.872611379844    1.635499989066   -2.365471136504
 O    0.056388620156    1.413499989066   -0.566471136504
 O   -1.921611379844    0.029499989066   -0.261471136504
 C    0.793388620156    2.578499989066   -0.943471136504
 H    0.462388620156    3.461499989066   -0.367471136504
 H    0.678388620156    2.789499989066   -2.021471136504
 H    1.853388620156    2.376499989066   -0.723471136504
 C   -3.312611379844   -0.293500010934   -0.311471136504
 H   -3.690611379844   -0.266500010934   -1.349471136504
 H   -3.905611379844    0.405499989066    0.304528863496
 H   -3.422611379844   -1.313500010934    0.088528863496
RB    2.154634808714   -2.067193475467    1.119392422079
