14

 P   -1.683771723673    1.715498079067   -0.915466631855
 O   -2.270771723673    2.765498079067    0.039533368145
 O   -1.949771723673    1.763498079067   -2.427466631855
 O   -0.020771723673    1.541498079067   -0.628466631855
 O   -1.998771723673    0.157498079067   -0.323466631855
 C    0.716228276327    2.706498079067   -1.005466631855
 H    0.385228276327    3.589498079067   -0.429466631855
 H    0.601228276327    2.917498079067   -2.083466631855
 H    1.776228276327    2.504498079067   -0.785466631855
 C   -3.389771723673   -0.165501920933   -0.373466631855
 H   -3.767771723673   -0.138501920933   -1.411466631855
 H   -3.982771723673    0.533498079067    0.242533368145
 H   -3.499771723673   -1.185501920933    0.026533368145
RB    2.268224118390   -2.255622064060    1.210657250235
