14

 P   -1.722351895588    1.779497124068   -0.946464379531
 O   -2.309351895588    2.829497124068    0.008535620469
 O   -1.988351895588    1.827497124068   -2.458464379531
 O   -0.059351895588    1.605497124068   -0.659464379531
 O   -2.037351895588    0.221497124068   -0.354464379531
 C    0.677648104412    2.770497124068   -1.036464379531
 H    0.346648104412    3.653497124068   -0.460464379531
 H    0.562648104412    2.981497124068   -2.114464379531
 H    1.737648104412    2.568497124068   -0.816464379531
 C   -3.428351895588   -0.101502875932   -0.404464379531
 H   -3.806351895588   -0.074502875932   -1.442464379531
 H   -4.021351895588    0.597497124068    0.211535620469
 H   -3.538351895588   -1.121502875932   -0.004464379531
RB    2.325018773228   -2.349836358356    1.256289664313
