14

 P   -1.741641981545    1.811496646568   -0.961963253369
 O   -2.328641981545    2.861496646568   -0.006963253369
 O   -2.007641981545    1.859496646568   -2.473963253369
 O   -0.078641981545    1.637496646568   -0.674963253369
 O   -2.056641981545    0.253496646568   -0.369963253369
 C    0.658358018455    2.802496646568   -1.051963253369
 H    0.327358018455    3.685496646568   -0.475963253369
 H    0.543358018455    3.013496646568   -2.129963253369
 H    1.718358018455    2.600496646568   -0.831963253369
 C   -3.447641981545   -0.069503353432   -0.419963253369
 H   -3.825641981545   -0.042503353432   -1.457963253369
 H   -4.040641981545    0.629496646568    0.196036746631
 H   -3.557641981545   -1.089503353432   -0.019963253369
RB    2.353416100647   -2.396943505505    1.279105871352
