14

 P   -1.760932067502    1.843496169068   -0.977462127207
 O   -2.347932067502    2.893496169068   -0.022462127207
 O   -2.026932067502    1.891496169068   -2.489462127207
 O   -0.097932067502    1.669496169068   -0.690462127207
 O   -2.075932067502    0.285496169068   -0.385462127207
 C    0.639067932498    2.834496169068   -1.067462127207
 H    0.308067932498    3.717496169068   -0.491462127207
 H    0.524067932498    3.045496169068   -2.145462127207
 H    1.699067932498    2.632496169068   -0.847462127207
 C   -3.466932067502   -0.037503830932   -0.435462127207
 H   -3.844932067502   -0.010503830932   -1.473462127207
 H   -4.059932067502    0.661496169068    0.180537872793
 H   -3.576932067502   -1.057503830932   -0.035462127207
RB    2.381813428066   -2.444050652653    1.301922078391
