14

 P   -1.934542841118    2.131491871571   -1.116951991748
 O   -2.521542841118    3.181491871571   -0.161951991748
 O   -2.200542841118    2.179491871571   -2.628951991748
 O   -0.271542841118    1.957491871571   -0.829951991748
 O   -2.249542841118    0.573491871571   -0.524951991748
 C    0.465457158882    3.122491871571   -1.206951991748
 H    0.134457158882    4.005491871571   -0.630951991748
 H    0.350457158882    3.333491871571   -2.284951991748
 H    1.525457158882    2.920491871571   -0.986951991748
 C   -3.640542841118    0.250491871571   -0.574951991748
 H   -4.018542841118    0.277491871571   -1.612951991748
 H   -4.233542841118    0.949491871571    0.041048008252
 H   -3.750542841118   -0.769508128429   -0.174951991748
RB    2.637389374837   -2.868014976987    1.507267941741
