14

 P   -1.992413098990    2.227490439072   -1.163448613262
 O   -2.579413098990    3.277490439072   -0.208448613262
 O   -2.258413098990    2.275490439072   -2.675448613262
 O   -0.329413098990    2.053490439072   -0.876448613262
 O   -2.307413098990    0.669490439072   -0.571448613262
 C    0.407586901010    3.218490439072   -1.253448613262
 H    0.076586901010    4.101490439072   -0.677448613262
 H    0.292586901010    3.429490439072   -2.331448613262
 H    1.467586901010    3.016490439072   -1.033448613262
 C   -3.698413098990    0.346490439072   -0.621448613262
 H   -4.076413098990    0.373490439072   -1.659448613262
 H   -4.291413098990    1.045490439072   -0.005448613262
 H   -3.808413098990   -0.673509560928   -0.221448613262
RB    2.722581357094   -3.009336418431    1.575716562858
