14

 P   -2.069573442819    2.355488529073   -1.225444108614
 O   -2.656573442819    3.405488529073   -0.270444108614
 O   -2.335573442819    2.403488529073   -2.737444108614
 O   -0.406573442819    2.181488529073   -0.938444108614
 O   -2.384573442819    0.797488529073   -0.633444108614
 C    0.330426557181    3.346488529073   -1.315444108614
 H   -0.000573442819    4.229488529073   -0.739444108614
 H    0.215426557181    3.557488529073   -2.393444108614
 H    1.390426557181    3.144488529073   -1.095444108614
 C   -3.775573442819    0.474488529073   -0.683444108614
 H   -4.153573442819    0.501488529073   -1.721444108614
 H   -4.368573442819    1.173488529073   -0.067444108614
 H   -3.885573442819   -0.545511470927   -0.283444108614
RB    2.836170666770   -3.197765007024    1.666981391014
