14

 P   -2.108153614734    2.419487574073   -1.256441856289
 O   -2.695153614734    3.469487574073   -0.301441856289
 O   -2.374153614734    2.467487574073   -2.768441856289
 O   -0.445153614734    2.245487574073   -0.969441856289
 O   -2.423153614734    0.861487574073   -0.664441856289
 C    0.291846385266    3.410487574073   -1.346441856289
 H   -0.039153614734    4.293487574073   -0.770441856289
 H    0.176846385266    3.621487574073   -2.424441856289
 H    1.351846385266    3.208487574073   -1.126441856289
 C   -3.814153614734    0.538487574073   -0.714441856289
 H   -4.192153614734    0.565487574073   -1.752441856289
 H   -4.407153614734    1.237487574073   -0.098441856289
 H   -3.924153614734   -0.481512425927   -0.314441856289
RB    2.892965321608   -3.291979301321    1.712613805092
