14

 P   -2.146733786648    2.483486619074   -1.287439603965
 O   -2.733733786648    3.533486619074   -0.332439603965
 O   -2.412733786648    2.531486619074   -2.799439603965
 O   -0.483733786648    2.309486619074   -1.000439603965
 O   -2.461733786648    0.925486619074   -0.695439603965
 C    0.253266213352    3.474486619074   -1.377439603965
 H   -0.077733786648    4.357486619074   -0.801439603965
 H    0.138266213352    3.685486619074   -2.455439603965
 H    1.313266213352    3.272486619074   -1.157439603965
 C   -3.852733786648    0.602486619074   -0.745439603965
 H   -4.230733786648    0.629486619074   -1.783439603965
 H   -4.445733786648    1.301486619074   -0.129439603965
 H   -3.962733786648   -0.417513380926   -0.345439603965
RB    2.949759976446   -3.386193595617    1.758246219170
