14

 P   -2.185313958563    2.547485664075   -1.318437351641
 O   -2.772313958563    3.597485664075   -0.363437351641
 O   -2.451313958563    2.595485664075   -2.830437351641
 O   -0.522313958563    2.373485664075   -1.031437351641
 O   -2.500313958563    0.989485664075   -0.726437351641
 C    0.214686041437    3.538485664075   -1.408437351641
 H   -0.116313958563    4.421485664075   -0.832437351641
 H    0.099686041437    3.749485664075   -2.486437351641
 H    1.274686041437    3.336485664075   -1.188437351641
 C   -3.891313958563    0.666485664075   -0.776437351641
 H   -4.269313958563    0.693485664075   -1.814437351641
 H   -4.484313958563    1.365485664075   -0.160437351641
 H   -4.001313958563   -0.353514335925   -0.376437351641
RB    3.006554631285   -3.480407889913    1.803878633248
