14

 P   -2.281764388350    2.707483276576   -1.395931720831
 O   -2.868764388350    3.757483276576   -0.440931720831
 O   -2.547764388350    2.755483276576   -2.907931720831
 O   -0.618764388350    2.533483276576   -1.108931720831
 O   -2.596764388350    1.149483276576   -0.803931720831
 C    0.118235611650    3.698483276576   -1.485931720831
 H   -0.212764388350    4.581483276576   -0.909931720831
 H    0.003235611650    3.909483276576   -2.563931720831
 H    1.178235611650    3.496483276576   -1.265931720831
 C   -3.987764388350    0.826483276576   -0.853931720831
 H   -4.365764388350    0.853483276576   -1.891931720831
 H   -4.580764388350    1.525483276576   -0.237931720831
 H   -4.097764388350   -0.193516723424   -0.453931720831
RB    3.148541268380   -3.715943625654    1.917959668442
