14

 P   -2.301054474307    2.739482799076   -1.411430594669
 O   -2.888054474307    3.789482799076   -0.456430594669
 O   -2.567054474307    2.787482799076   -2.923430594669
 O   -0.638054474307    2.565482799076   -1.124430594669
 O   -2.616054474307    1.181482799076   -0.819430594669
 C    0.098945525693    3.730482799076   -1.501430594669
 H   -0.232054474307    4.613482799076   -0.925430594669
 H   -0.016054474307    3.941482799076   -2.579430594669
 H    1.158945525693    3.528482799076   -1.281430594669
 C   -4.007054474307    0.858482799076   -0.869430594669
 H   -4.385054474307    0.885482799076   -1.907430594669
 H   -4.600054474307    1.557482799076   -0.253430594669
 H   -4.117054474307   -0.161517200924   -0.469430594669
RB    3.176938595799   -3.763050772803    1.940775875481
