14

 P   -2.378214818136    2.867480889077   -1.473426090020
 O   -2.965214818136    3.917480889077   -0.518426090020
 O   -2.644214818136    2.915480889077   -2.985426090020
 O   -0.715214818136    2.693480889077   -1.186426090020
 O   -2.693214818136    1.309480889077   -0.881426090020
 C    0.021785181864    3.858480889077   -1.563426090020
 H   -0.309214818136    4.741480889077   -0.987426090020
 H   -0.093214818136    4.069480889077   -2.641426090020
 H    1.081785181864    3.656480889077   -1.343426090020
 C   -4.084214818136    0.986480889077   -0.931426090020
 H   -4.462214818136    1.013480889077   -1.969426090020
 H   -4.677214818136    1.685480889077   -0.315426090020
 H   -4.194214818136   -0.033519110923   -0.531426090020
RB    3.290527905475   -3.951479361395    2.032040703637
