14

 P   -2.416794990051    2.931479934078   -1.504423837696
 O   -3.003794990051    3.981479934078   -0.549423837696
 O   -2.682794990051    2.979479934078   -3.016423837696
 O   -0.753794990051    2.757479934078   -1.217423837696
 O   -2.731794990051    1.373479934078   -0.912423837696
 C   -0.016794990051    3.922479934078   -1.594423837696
 H   -0.347794990051    4.805479934078   -1.018423837696
 H   -0.131794990051    4.133479934078   -2.672423837696
 H    1.043205009949    3.720479934078   -1.374423837696
 C   -4.122794990051    1.050479934078   -0.962423837696
 H   -4.500794990051    1.077479934078   -2.000423837696
 H   -4.715794990051    1.749479934078   -0.346423837696
 H   -4.232794990051    0.030479934078   -0.562423837696
RB    3.347322560313   -4.045693655692    2.077673117715
