14

 P   -2.551825591752    3.155476591580   -1.612915954562
 O   -3.138825591752    4.205476591580   -0.657915954562
 O   -2.817825591752    3.203476591580   -3.124915954562
 O   -0.888825591752    2.981476591580   -1.325915954562
 O   -2.866825591752    1.597476591580   -1.020915954562
 C   -0.151825591752    4.146476591580   -1.702915954562
 H   -0.482825591752    5.029476591580   -1.126915954562
 H   -0.266825591752    4.357476591580   -2.780915954562
 H    0.908174408248    3.944476591580   -1.482915954562
 C   -4.257825591752    1.274476591580   -1.070915954562
 H   -4.635825591752    1.301476591580   -2.108915954562
 H   -4.850825591752    1.973476591580   -0.454915954562
 H   -4.367825591752    0.254476591580   -0.670915954562
RB    3.546103852246   -4.375443685729    2.237386566988
