14

 P   -2.571115677709    3.187476114080   -1.628414828400
 O   -3.158115677709    4.237476114080   -0.673414828400
 O   -2.837115677709    3.235476114080   -3.140414828400
 O   -0.908115677709    3.013476114080   -1.341414828400
 O   -2.886115677709    1.629476114080   -1.036414828400
 C   -0.171115677709    4.178476114080   -1.718414828400
 H   -0.502115677709    5.061476114080   -1.142414828400
 H   -0.286115677709    4.389476114080   -2.796414828400
 H    0.888884322291    3.976476114080   -1.498414828400
 C   -4.277115677709    1.306476114080   -1.086414828400
 H   -4.655115677709    1.333476114080   -2.124414828400
 H   -4.870115677709    2.005476114080   -0.470414828400
 H   -4.387115677709    0.286476114080   -0.686414828400
RB    3.574501179665   -4.422550832877    2.260202774027
