14

 P   -2.628985935581    3.283474681581   -1.674911449913
 O   -3.215985935581    4.333474681581   -0.719911449913
 O   -2.894985935581    3.331474681581   -3.186911449913
 O   -0.965985935581    3.109474681581   -1.387911449913
 O   -2.943985935581    1.725474681581   -1.082911449913
 C   -0.228985935581    4.274474681581   -1.764911449913
 H   -0.559985935581    5.157474681581   -1.188911449913
 H   -0.343985935581    4.485474681581   -2.842911449913
 H    0.831014064419    4.072474681581   -1.544911449913
 C   -4.334985935581    1.402474681581   -1.132911449913
 H   -4.712985935581    1.429474681581   -2.170911449913
 H   -4.927985935581    2.101474681581   -0.516911449913
 H   -4.444985935581    0.382474681581   -0.732911449913
RB    3.659693161922   -4.563872274322    2.328651395144
