14

 P   -2.648276021538    3.315474204081   -1.690410323751
 O   -3.235276021538    4.365474204081   -0.735410323751
 O   -2.914276021538    3.363474204081   -3.202410323751
 O   -0.985276021538    3.141474204081   -1.403410323751
 O   -2.963276021538    1.757474204081   -1.098410323751
 C   -0.248276021538    4.306474204081   -1.780410323751
 H   -0.579276021538    5.189474204081   -1.204410323751
 H   -0.363276021538    4.517474204081   -2.858410323751
 H    0.811723978462    4.104474204081   -1.560410323751
 C   -4.354276021538    1.434474204081   -1.148410323751
 H   -4.732276021538    1.461474204081   -2.186410323751
 H   -4.947276021538    2.133474204081   -0.532410323751
 H   -4.464276021538    0.414474204081   -0.748410323751
RB    3.688090489341   -4.610979421470    2.351467602183
