14

 P   -2.667566107496    3.347473726582   -1.705909197589
 O   -3.254566107496    4.397473726582   -0.750909197589
 O   -2.933566107496    3.395473726582   -3.217909197589
 O   -1.004566107496    3.173473726582   -1.418909197589
 O   -2.982566107496    1.789473726582   -1.113909197589
 C   -0.267566107496    4.338473726582   -1.795909197589
 H   -0.598566107496    5.221473726582   -1.219909197589
 H   -0.382566107496    4.549473726582   -2.873909197589
 H    0.792433892504    4.136473726582   -1.575909197589
 C   -4.373566107496    1.466473726582   -1.163909197589
 H   -4.751566107496    1.493473726582   -2.201909197589
 H   -4.966566107496    2.165473726582   -0.547909197589
 H   -4.483566107496    0.446473726582   -0.763909197589
RB    3.716487816760   -4.658086568618    2.374283809222
