25

 C    0.034497861365    2.661644791258    0.000000000000
 H    0.168267861365    3.751844791258    0.000000000000
 H    0.532947861365    2.277314791258    0.905790000000
 H    0.532947861365    2.277314791258   -0.905790000000
 C   -1.443792138635    2.316004791258    0.000000000000
 H   -1.951142138635    2.705064791258   -0.896920000000
 H   -1.951142138635    2.705064791258    0.896920000000
 O   -1.555232138635    0.868264791258    0.000000000000
 C   -2.932982138635    0.432004791258    0.000000000000
 H   -3.440872138635    0.804964791258   -0.901230000000
 H   -3.440872138635    0.804964791258    0.901230000000
 H   -2.928732138635   -0.664155208742    0.000000000000
LI    0.063477861365   -0.035435208742    0.000000000000
 O    1.547822647366   -0.864121250781    0.000000000000
 C    2.925564945218   -0.427871796560    0.000000000000
 H    3.433457803737   -0.800828514479    0.901233732016
 H    3.433457803737   -0.800828514479   -0.901233732016
 H    2.921321510153    0.668279989855    0.000000000000
 C    1.436369560114   -2.311867544246    0.000000000000
 H    1.943724208863   -2.700927757227    0.896916702915
 H    1.943724208863   -2.700927757227   -0.896916702915
 C   -0.041912282647   -2.657500609599    0.000000000000
 H   -0.175692301818   -3.747703127882    0.000000000000
 H   -0.540364121668   -2.273168406562   -0.905783374701
 H   -0.540364121668   -2.273168406562    0.905783374701
