25

 C   -0.047997902194    2.707700861541    0.000000000000
 H    0.085772097806    3.797900861541    0.000000000000
 H    0.450452097806    2.323370861541    0.905790000000
 H    0.450452097806    2.323370861541   -0.905790000000
 C   -1.526287902194    2.362060861541    0.000000000000
 H   -2.033637902194    2.751120861541   -0.896920000000
 H   -2.033637902194    2.751120861541    0.896920000000
 O   -1.637727902194    0.914320861541    0.000000000000
 C   -3.015477902194    0.478060861541    0.000000000000
 H   -3.523367902194    0.851020861541   -0.901230000000
 H   -3.523367902194    0.851020861541    0.901230000000
 H   -3.011227902194   -0.618099138459    0.000000000000
LI   -0.019017902194    0.010620861541    0.000000000000
 O    1.639955682161   -0.915557656032    0.000000000000
 C    3.017697980013   -0.479308201811    0.000000000000
 H    3.525590838532   -0.852264919730    0.901233732016
 H    3.525590838532   -0.852264919730   -0.901233732016
 H    3.013454544947    0.616843584604    0.000000000000
 C    1.528502594908   -2.363303949497    0.000000000000
 H    2.035857243658   -2.752364162478    0.896916702915
 H    2.035857243658   -2.752364162478   -0.896916702915
 C    0.050220752148   -2.708937014850    0.000000000000
 H   -0.083559267023   -3.799139533133    0.000000000000
 H   -0.448231086874   -2.324604811813   -0.905783374701
 H   -0.448231086874   -2.324604811813    0.905783374701
