25

 C   -3.389076326316    4.572971708005    0.000000000000
 H   -3.255306326316    5.663171708005    0.000000000000
 H   -2.890626326316    4.188641708005    0.905790000000
 H   -2.890626326316    4.188641708005   -0.905790000000
 C   -4.867366326316    4.227331708005    0.000000000000
 H   -5.374716326316    4.616391708005   -0.896920000000
 H   -5.374716326316    4.616391708005    0.896920000000
 O   -4.978806326316    2.779591708005    0.000000000000
 C   -6.356556326316    2.343331708005    0.000000000000
 H   -6.864446326316    2.716291708005   -0.901230000000
 H   -6.864446326316    2.716291708005    0.901230000000
 H   -6.352306326316    1.247171708005    0.000000000000
LI   -3.360096326316    1.875891708005    0.000000000000
 O    5.371343591339   -2.998732068697    0.000000000000
 C    6.749085889192   -2.562482614475    0.000000000000
 H    7.256978747711   -2.935439332395    0.901233732016
 H    7.256978747711   -2.935439332395   -0.901233732016
 H    6.744842454126   -1.466330828061    0.000000000000
 C    5.259890504087   -4.446478362162    0.000000000000
 H    5.767245152836   -4.835538575143    0.896916702915
 H    5.767245152836   -4.835538575143   -0.896916702915
 C    3.781608661326   -4.792111427515    0.000000000000
 H    3.647828642155   -5.882313945798    0.000000000000
 H    3.283156822305   -4.407779224477   -0.905783374701
 H    3.283156822305   -4.407779224477    0.905783374701
