25

 C   -0.089245783973    2.730728896683    0.000000000000
 H    0.044524216027    3.820928896683    0.000000000000
 H    0.409204216027    2.346398896683    0.905790000000
 H    0.409204216027    2.346398896683   -0.905790000000
 C   -1.567535783973    2.385088896683    0.000000000000
 H   -2.074885783973    2.774148896683   -0.896920000000
 H   -2.074885783973    2.774148896683    0.896920000000
 O   -1.678975783973    0.937348896683    0.000000000000
 C   -3.056725783973    0.501088896683    0.000000000000
 H   -3.564615783973    0.874048896683   -0.901230000000
 H   -3.564615783973    0.874048896683    0.901230000000
 H   -3.052475783973   -0.595071103317    0.000000000000
LI   -0.060265783973    0.033648896683    0.000000000000
 O    1.686022199558   -0.941275858658    0.000000000000
 C    3.063764497410   -0.505026404436    0.000000000000
 H    3.571657355929   -0.877983122355    0.901233732016
 H    3.571657355929   -0.877983122355   -0.901233732016
 H    3.059521062345    0.591125381978    0.000000000000
 C    1.574569112306   -2.389022152123    0.000000000000
 H    2.081923761055   -2.778082365104    0.896916702915
 H    2.081923761055   -2.778082365104   -0.896916702915
 C    0.096287269545   -2.734655217475    0.000000000000
 H   -0.037492749626   -3.824857735758    0.000000000000
 H   -0.402164569476   -2.350323014438   -0.905783374701
 H   -0.402164569476   -2.350323014438    0.905783374701
