25

 C   -0.295485192869    2.845869072390    0.000000000000
 H   -0.161715192869    3.936069072390    0.000000000000
 H    0.202964807131    2.461539072390    0.905790000000
 H    0.202964807131    2.461539072390   -0.905790000000
 C   -1.773775192869    2.500229072390    0.000000000000
 H   -2.281125192869    2.889289072390   -0.896920000000
 H   -2.281125192869    2.889289072390    0.896920000000
 O   -1.885215192869    1.052489072390    0.000000000000
 C   -3.262965192869    0.616229072390    0.000000000000
 H   -3.770855192869    0.989189072390   -0.901230000000
 H   -3.770855192869    0.989189072390    0.901230000000
 H   -3.258715192869   -0.479930927610    0.000000000000
LI   -0.266505192869    0.148789072390    0.000000000000
 O    1.916354786544   -1.069866871785    0.000000000000
 C    3.294097084397   -0.633617417563    0.000000000000
 H    3.801989942916   -1.006574135483    0.901233732016
 H    3.801989942916   -1.006574135483   -0.901233732016
 H    3.289853649331    0.462534368851    0.000000000000
 C    1.804901699292   -2.517613165250    0.000000000000
 H    2.312256348041   -2.906673378231    0.896916702915
 H    2.312256348041   -2.906673378231   -0.896916702915
 C    0.326619856532   -2.863246230603    0.000000000000
 H    0.192839837360   -3.953448748886    0.000000000000
 H   -0.171831982490   -2.478914027566   -0.905783374701
 H   -0.171831982490   -2.478914027566    0.905783374701
