25

 C   -0.377980956428    2.891925142673    0.000000000000
 H   -0.244210956428    3.982125142673    0.000000000000
 H    0.120469043572    2.507595142673    0.905790000000
 H    0.120469043572    2.507595142673   -0.905790000000
 C   -1.856270956428    2.546285142673    0.000000000000
 H   -2.363620956428    2.935345142673   -0.896920000000
 H   -2.363620956428    2.935345142673    0.896920000000
 O   -1.967710956428    1.098545142673    0.000000000000
 C   -3.345460956428    0.662285142673    0.000000000000
 H   -3.853350956428    1.035245142673   -0.901230000000
 H   -3.853350956428    1.035245142673    0.901230000000
 H   -3.341210956428   -0.433874857327    0.000000000000
LI   -0.349000956428    0.194845142673    0.000000000000
 O    2.008487821339   -1.121303277036    0.000000000000
 C    3.386230119191   -0.685053822814    0.000000000000
 H    3.894122977710   -1.058010540734    0.901233732016
 H    3.894122977710   -1.058010540734   -0.901233732016
 H    3.381986684125    0.411097963600    0.000000000000
 C    1.897034734086   -2.569049570501    0.000000000000
 H    2.404389382836   -2.958109783482    0.896916702915
 H    2.404389382836   -2.958109783482   -0.896916702915
 C    0.418752891326   -2.914682635854    0.000000000000
 H    0.284972872155   -4.004885154137    0.000000000000
 H   -0.079698947695   -2.530350432817   -0.905783374701
 H   -0.079698947695   -2.530350432817    0.905783374701
