25

 C   -0.419228838207    2.914953177815    0.000000000000
 H   -0.285458838207    4.005153177815    0.000000000000
 H    0.079221161793    2.530623177815    0.905790000000
 H    0.079221161793    2.530623177815   -0.905790000000
 C   -1.897518838207    2.569313177815    0.000000000000
 H   -2.404868838207    2.958373177815   -0.896920000000
 H   -2.404868838207    2.958373177815    0.896920000000
 O   -2.008958838207    1.121573177815    0.000000000000
 C   -3.386708838207    0.685313177815    0.000000000000
 H   -3.894598838207    1.058273177815   -0.901230000000
 H   -3.894598838207    1.058273177815    0.901230000000
 H   -3.382458838207   -0.410846822185    0.000000000000
LI   -0.390248838207    0.217873177815    0.000000000000
 O    2.054554338736   -1.147021479662    0.000000000000
 C    3.432296636588   -0.710772025440    0.000000000000
 H    3.940189495107   -1.083728743359    0.901233732016
 H    3.940189495107   -1.083728743359   -0.901233732016
 H    3.428053201523    0.385379760974    0.000000000000
 C    1.943101251484   -2.594767773127    0.000000000000
 H    2.450455900233   -2.983827986107    0.896916702915
 H    2.450455900233   -2.983827986107   -0.896916702915
 C    0.464819408723   -2.940400838479    0.000000000000
 H    0.331039389552   -4.030603356762    0.000000000000
 H   -0.033632430298   -2.556068635442   -0.905783374701
 H   -0.033632430298   -2.556068635442    0.905783374701
