25

 C   -0.460476719987    2.937981212956    0.000000000000
 H   -0.326706719987    4.028181212956    0.000000000000
 H    0.037973280013    2.553651212956    0.905790000000
 H    0.037973280013    2.553651212956   -0.905790000000
 C   -1.938766719987    2.592341212956    0.000000000000
 H   -2.446116719987    2.981401212956   -0.896920000000
 H   -2.446116719987    2.981401212956    0.896920000000
 O   -2.050206719987    1.144601212956    0.000000000000
 C   -3.427956719987    0.708341212956    0.000000000000
 H   -3.935846719987    1.081301212956   -0.901230000000
 H   -3.935846719987    1.081301212956    0.901230000000
 H   -3.423706719987   -0.387818787044    0.000000000000
LI   -0.431496719987    0.240901212956    0.000000000000
 O    2.100620856133   -1.172739682287    0.000000000000
 C    3.478363153986   -0.736490228065    0.000000000000
 H    3.986256012505   -1.109446945985    0.901233732016
 H    3.986256012505   -1.109446945985   -0.901233732016
 H    3.474119718920    0.359661558349    0.000000000000
 C    1.989167768881   -2.620485975752    0.000000000000
 H    2.496522417630   -3.009546188733    0.896916702915
 H    2.496522417630   -3.009546188733   -0.896916702915
 C    0.510885926121   -2.966119041105    0.000000000000
 H    0.377105906949   -4.056321559388    0.000000000000
 H    0.012434087099   -2.581786838068   -0.905783374701
 H    0.012434087099   -2.581786838068    0.905783374701
