25

 C   -0.542972483545    2.984037283239    0.000000000000
 H   -0.409202483545    4.074237283239    0.000000000000
 H   -0.044522483545    2.599707283239    0.905790000000
 H   -0.044522483545    2.599707283239   -0.905790000000
 C   -2.021262483545    2.638397283239    0.000000000000
 H   -2.528612483545    3.027457283239   -0.896920000000
 H   -2.528612483545    3.027457283239    0.896920000000
 O   -2.132702483545    1.190657283239    0.000000000000
 C   -3.510452483545    0.754397283239    0.000000000000
 H   -4.018342483545    1.127357283239   -0.901230000000
 H   -4.018342483545    1.127357283239    0.901230000000
 H   -3.506202483545   -0.341762716761    0.000000000000
LI   -0.513992483545    0.286957283239    0.000000000000
 O    2.192753890928   -1.224176087538    0.000000000000
 C    3.570496188780   -0.787926633316    0.000000000000
 H    4.078389047299   -1.160883351236    0.901233732016
 H    4.078389047299   -1.160883351236   -0.901233732016
 H    3.566252753714    0.308225153098    0.000000000000
 C    2.081300803675   -2.671922381003    0.000000000000
 H    2.588655452425   -3.060982593984    0.896916702915
 H    2.588655452425   -3.060982593984   -0.896916702915
 C    0.603018960915   -3.017555446356    0.000000000000
 H    0.469238941744   -4.107757964639    0.000000000000
 H    0.104567121894   -2.633223243319   -0.905783374701
 H    0.104567121894   -2.633223243319    0.905783374701
