25

 C   -0.625468247104    3.030093353522    0.000000000000
 H   -0.491698247104    4.120293353522    0.000000000000
 H   -0.127018247104    2.645763353522    0.905790000000
 H   -0.127018247104    2.645763353522   -0.905790000000
 C   -2.103758247104    2.684453353522    0.000000000000
 H   -2.611108247104    3.073513353522   -0.896920000000
 H   -2.611108247104    3.073513353522    0.896920000000
 O   -2.215198247104    1.236713353522    0.000000000000
 C   -3.592948247104    0.800453353522    0.000000000000
 H   -4.100838247104    1.173413353522   -0.901230000000
 H   -4.100838247104    1.173413353522    0.901230000000
 H   -3.588698247104   -0.295706646478    0.000000000000
LI   -0.596488247104    0.333013353522    0.000000000000
 O    2.284886925722   -1.275612492789    0.000000000000
 C    3.662629223575   -0.839363038567    0.000000000000
 H    4.170522082094   -1.212319756487    0.901233732016
 H    4.170522082094   -1.212319756487   -0.901233732016
 H    3.658385788509    0.256788747847    0.000000000000
 C    2.173433838470   -2.723358786254    0.000000000000
 H    2.680788487219   -3.112418999235    0.896916702915
 H    2.680788487219   -3.112418999235   -0.896916702915
 C    0.695151995710   -3.068991851607    0.000000000000
 H    0.561371976539   -4.159194369890    0.000000000000
 H    0.196700156688   -2.684659648570   -0.905783374701
 H    0.196700156688   -2.684659648570    0.905783374701
