25

 C   -0.666716128883    3.053121388664    0.000000000000
 H   -0.532946128883    4.143321388664    0.000000000000
 H   -0.168266128883    2.668791388664    0.905790000000
 H   -0.168266128883    2.668791388664   -0.905790000000
 C   -2.145006128883    2.707481388664    0.000000000000
 H   -2.652356128883    3.096541388664   -0.896920000000
 H   -2.652356128883    3.096541388664    0.896920000000
 O   -2.256446128883    1.259741388664    0.000000000000
 C   -3.634196128883    0.823481388664    0.000000000000
 H   -4.142086128883    1.196441388664   -0.901230000000
 H   -4.142086128883    1.196441388664    0.901230000000
 H   -3.629946128883   -0.272678611336    0.000000000000
LI   -0.637736128883    0.356041388664    0.000000000000
 O    2.330953443120   -1.301330695415    0.000000000000
 C    3.708695740972   -0.865081241193    0.000000000000
 H    4.216588599491   -1.238037959112    0.901233732016
 H    4.216588599491   -1.238037959112   -0.901233732016
 H    3.704452305906    0.231070545221    0.000000000000
 C    2.219500355867   -2.749076988880    0.000000000000
 H    2.726855004617   -3.138137201860    0.896916702915
 H    2.726855004617   -3.138137201860   -0.896916702915
 C    0.741218513107   -3.094710054232    0.000000000000
 H    0.607438493936   -4.184912572515    0.000000000000
 H    0.242766674085   -2.710377851195   -0.905783374701
 H    0.242766674085   -2.710377851195    0.905783374701
