25

 C   -0.707964010662    3.076149423805    0.000000000000
 H   -0.574194010662    4.166349423805    0.000000000000
 H   -0.209514010662    2.691819423805    0.905790000000
 H   -0.209514010662    2.691819423805   -0.905790000000
 C   -2.186254010662    2.730509423805    0.000000000000
 H   -2.693604010662    3.119569423805   -0.896920000000
 H   -2.693604010662    3.119569423805    0.896920000000
 O   -2.297694010662    1.282769423805    0.000000000000
 C   -3.675444010662    0.846509423805    0.000000000000
 H   -4.183334010662    1.219469423805   -0.901230000000
 H   -4.183334010662    1.219469423805    0.901230000000
 H   -3.671194010662   -0.249650576195    0.000000000000
LI   -0.678984010662    0.379069423805    0.000000000000
 O    2.377019960517   -1.327048898040    0.000000000000
 C    3.754762258369   -0.890799443818    0.000000000000
 H    4.262655116888   -1.263756161738    0.901233732016
 H    4.262655116888   -1.263756161738   -0.901233732016
 H    3.750518823304    0.205352342596    0.000000000000
 C    2.265566873265   -2.774795191505    0.000000000000
 H    2.772921522014   -3.163855404486    0.896916702915
 H    2.772921522014   -3.163855404486   -0.896916702915
 C    0.787285030504   -3.120428256858    0.000000000000
 H    0.653505011333   -4.210630775141    0.000000000000
 H    0.288833191483   -2.736096053821   -0.905783374701
 H    0.288833191483   -2.736096053821    0.905783374701
