25

 C   -0.831707656000    3.145233529230    0.000000000000
 H   -0.697937656000    4.235433529230    0.000000000000
 H   -0.333257656000    2.760903529230    0.905790000000
 H   -0.333257656000    2.760903529230   -0.905790000000
 C   -2.309997656000    2.799593529230    0.000000000000
 H   -2.817347656000    3.188653529230   -0.896920000000
 H   -2.817347656000    3.188653529230    0.896920000000
 O   -2.421437656000    1.351853529230    0.000000000000
 C   -3.799187656000    0.915593529230    0.000000000000
 H   -4.307077656000    1.288553529230   -0.901230000000
 H   -4.307077656000    1.288553529230    0.901230000000
 H   -3.794937656000   -0.180566470770    0.000000000000
LI   -0.802727656000    0.448153529230    0.000000000000
 O    2.515219512709   -1.404203505917    0.000000000000
 C    3.892961810561   -0.967954051695    0.000000000000
 H    4.400854669080   -1.340910769614    0.901233732016
 H    4.400854669080   -1.340910769614   -0.901233732016
 H    3.888718375495    0.128197734719    0.000000000000
 C    2.403766425456   -2.851949799382    0.000000000000
 H    2.911121074206   -3.241010012362    0.896916702915
 H    2.911121074206   -3.241010012362   -0.896916702915
 C    0.925484582696   -3.197582864734    0.000000000000
 H    0.791704563525   -4.287785383017    0.000000000000
 H    0.427032743674   -2.813250661697   -0.905783374701
 H    0.427032743674   -2.813250661697    0.905783374701
