25

 C   -0.955451301338    3.214317634655    0.000000000000
 H   -0.821681301338    4.304517634655    0.000000000000
 H   -0.457001301338    2.829987634655    0.905790000000
 H   -0.457001301338    2.829987634655   -0.905790000000
 C   -2.433741301338    2.868677634655    0.000000000000
 H   -2.941091301338    3.257737634655   -0.896920000000
 H   -2.941091301338    3.257737634655    0.896920000000
 O   -2.545181301338    1.420937634655    0.000000000000
 C   -3.922931301338    0.984677634655    0.000000000000
 H   -4.430821301338    1.357637634655   -0.901230000000
 H   -4.430821301338    1.357637634655    0.901230000000
 H   -3.918681301338   -0.111482365345    0.000000000000
LI   -0.926471301338    0.517237634655    0.000000000000
 O    2.653419064901   -1.481358113793    0.000000000000
 C    4.031161362753   -1.045108659571    0.000000000000
 H    4.539054221272   -1.418065377491    0.901233732016
 H    4.539054221272   -1.418065377491   -0.901233732016
 H    4.026917927687    0.051043126843    0.000000000000
 C    2.541965977648   -2.929104407258    0.000000000000
 H    3.049320626398   -3.318164620239    0.896916702915
 H    3.049320626398   -3.318164620239   -0.896916702915
 C    1.063684134888   -3.274737472611    0.000000000000
 H    0.929904115717   -4.364939990894    0.000000000000
 H    0.565232295866   -2.890405269573   -0.905783374701
 H    0.565232295866   -2.890405269573    0.905783374701
