25

 C   -0.996699183117    3.237345669796    0.000000000000
 H   -0.862929183117    4.327545669796    0.000000000000
 H   -0.498249183117    2.853015669796    0.905790000000
 H   -0.498249183117    2.853015669796   -0.905790000000
 C   -2.474989183117    2.891705669796    0.000000000000
 H   -2.982339183117    3.280765669796   -0.896920000000
 H   -2.982339183117    3.280765669796    0.896920000000
 O   -2.586429183117    1.443965669796    0.000000000000
 C   -3.964179183117    1.007705669796    0.000000000000
 H   -4.472069183117    1.380665669796   -0.901230000000
 H   -4.472069183117    1.380665669796    0.901230000000
 H   -3.959929183117   -0.088454330204    0.000000000000
LI   -0.967719183117    0.540265669796    0.000000000000
 O    2.699485582298   -1.507076316419    0.000000000000
 C    4.077227880150   -1.070826862197    0.000000000000
 H    4.585120738669   -1.443783580116    0.901233732016
 H    4.585120738669   -1.443783580116   -0.901233732016
 H    4.072984445084    0.025324924217    0.000000000000
 C    2.588032495045   -2.954822609884    0.000000000000
 H    3.095387143795   -3.343882822864    0.896916702915
 H    3.095387143795   -3.343882822864   -0.896916702915
 C    1.109750652285   -3.300455675236    0.000000000000
 H    0.975970633114   -4.390658193519    0.000000000000
 H    0.611298813264   -2.916123472199   -0.905783374701
 H    0.611298813264   -2.916123472199    0.905783374701
