25

 C   -1.244186473793    3.375513880645    0.000000000000
 H   -1.110416473793    4.465713880645    0.000000000000
 H   -0.745736473793    2.991183880645    0.905790000000
 H   -0.745736473793    2.991183880645   -0.905790000000
 C   -2.722476473793    3.029873880645    0.000000000000
 H   -3.229826473793    3.418933880645   -0.896920000000
 H   -3.229826473793    3.418933880645    0.896920000000
 O   -2.833916473793    1.582133880645    0.000000000000
 C   -4.211666473793    1.145873880645    0.000000000000
 H   -4.719556473793    1.518833880645   -0.901230000000
 H   -4.719556473793    1.518833880645    0.901230000000
 H   -4.207416473793    0.049713880645    0.000000000000
LI   -1.215206473793    0.678433880645    0.000000000000
 O    2.975884686681   -1.661385532171    0.000000000000
 C    4.353626984534   -1.225136077950    0.000000000000
 H    4.861519843053   -1.598092795869    0.901233732016
 H    4.861519843053   -1.598092795869   -0.901233732016
 H    4.349383549468   -0.128984291536    0.000000000000
 C    2.864431599429   -3.109131825637    0.000000000000
 H    3.371786248178   -3.498192038617    0.896916702915
 H    3.371786248178   -3.498192038617   -0.896916702915
 C    1.386149756669   -3.454764890989    0.000000000000
 H    1.252369737498   -4.544967409272    0.000000000000
 H    0.887697917647   -3.070432687952   -0.905783374701
 H    0.887697917647   -3.070432687952    0.905783374701
