25

 C   -1.367930119131    3.444597986070    0.000000000000
 H   -1.234160119131    4.534797986070    0.000000000000
 H   -0.869480119131    3.060267986070    0.905790000000
 H   -0.869480119131    3.060267986070   -0.905790000000
 C   -2.846220119131    3.098957986070    0.000000000000
 H   -3.353570119131    3.488017986070   -0.896920000000
 H   -3.353570119131    3.488017986070    0.896920000000
 O   -2.957660119131    1.651217986070    0.000000000000
 C   -4.335410119131    1.214957986070    0.000000000000
 H   -4.843300119131    1.587917986070   -0.901230000000
 H   -4.843300119131    1.587917986070    0.901230000000
 H   -4.331160119131    0.118797986070    0.000000000000
LI   -1.338950119131    0.747517986070    0.000000000000
 O    3.114084238873   -1.738540140048    0.000000000000
 C    4.491826536725   -1.302290685826    0.000000000000
 H    4.999719395244   -1.675247403746    0.901233732016
 H    4.999719395244   -1.675247403746   -0.901233732016
 H    4.487583101660   -0.206138899412    0.000000000000
 C    3.002631151621   -3.186286433513    0.000000000000
 H    3.509985800370   -3.575346646494    0.896916702915
 H    3.509985800370   -3.575346646494   -0.896916702915
 C    1.524349308860   -3.531919498866    0.000000000000
 H    1.390569289689   -4.622122017149    0.000000000000
 H    1.025897469839   -3.147587295828   -0.905783374701
 H    1.025897469839   -3.147587295828    0.905783374701
