25

 C   -1.450425882689    3.490654056353    0.000000000000
 H   -1.316655882689    4.580854056353    0.000000000000
 H   -0.951975882689    3.106324056353    0.905790000000
 H   -0.951975882689    3.106324056353   -0.905790000000
 C   -2.928715882689    3.145014056353    0.000000000000
 H   -3.436065882689    3.534074056353   -0.896920000000
 H   -3.436065882689    3.534074056353    0.896920000000
 O   -3.040155882689    1.697274056353    0.000000000000
 C   -4.417905882689    1.261014056353    0.000000000000
 H   -4.925795882689    1.633974056353   -0.901230000000
 H   -4.925795882689    1.633974056353    0.901230000000
 H   -4.413655882689    0.164854056353    0.000000000000
LI   -1.421445882689    0.793574056353    0.000000000000
 O    3.206217273668   -1.789976545299    0.000000000000
 C    4.583959571520   -1.353727091077    0.000000000000
 H    5.091852430039   -1.726683808997    0.901233732016
 H    5.091852430039   -1.726683808997   -0.901233732016
 H    4.579716136454   -0.257575304663    0.000000000000
 C    3.094764186415   -3.237722838764    0.000000000000
 H    3.602118835165   -3.626783051745    0.896916702915
 H    3.602118835165   -3.626783051745   -0.896916702915
 C    1.616482343655   -3.583355904117    0.000000000000
 H    1.482702324484   -4.673558422400    0.000000000000
 H    1.118030504633   -3.199023701079   -0.905783374701
 H    1.118030504633   -3.199023701079    0.905783374701
