25

 C   -1.656665291586    3.605794232061    0.000000000000
 H   -1.522895291586    4.695994232061    0.000000000000
 H   -1.158215291586    3.221464232061    0.905790000000
 H   -1.158215291586    3.221464232061   -0.905790000000
 C   -3.134955291586    3.260154232061    0.000000000000
 H   -3.642305291586    3.649214232061   -0.896920000000
 H   -3.642305291586    3.649214232061    0.896920000000
 O   -3.246395291586    1.812414232061    0.000000000000
 C   -4.624145291586    1.376154232061    0.000000000000
 H   -5.132035291586    1.749114232061   -0.901230000000
 H   -5.132035291586    1.749114232061    0.901230000000
 H   -4.619895291586    0.279994232061    0.000000000000
LI   -1.627685291586    0.908714232061    0.000000000000
 O    3.436549860654   -1.918567558426    0.000000000000
 C    4.814292158506   -1.482318104205    0.000000000000
 H    5.322185017025   -1.855274822124    0.901233732016
 H    5.322185017025   -1.855274822124   -0.901233732016
 H    4.810048723441   -0.386166317791    0.000000000000
 C    3.325096773402   -3.366313851892    0.000000000000
 H    3.832451422151   -3.755374064872    0.896916702915
 H    3.832451422151   -3.755374064872   -0.896916702915
 C    1.846814930641   -3.711946917244    0.000000000000
 H    1.713034911470   -4.802149435527    0.000000000000
 H    1.348363091620   -3.327614714207   -0.905783374701
 H    1.348363091620   -3.327614714207    0.905783374701
