25

 C   -1.739161055144    3.651850302344    0.000000000000
 H   -1.605391055144    4.742050302344    0.000000000000
 H   -1.240711055144    3.267520302344    0.905790000000
 H   -1.240711055144    3.267520302344   -0.905790000000
 C   -3.217451055144    3.306210302344    0.000000000000
 H   -3.724801055144    3.695270302344   -0.896920000000
 H   -3.724801055144    3.695270302344    0.896920000000
 O   -3.328891055144    1.858470302344    0.000000000000
 C   -4.706641055144    1.422210302344    0.000000000000
 H   -5.214531055144    1.795170302344   -0.901230000000
 H   -5.214531055144    1.795170302344    0.901230000000
 H   -4.702391055144    0.326050302344    0.000000000000
LI   -1.710181055144    0.954770302344    0.000000000000
 O    3.528682895449   -1.970003963677    0.000000000000
 C    4.906425193301   -1.533754509456    0.000000000000
 H    5.414318051820   -1.906711227375    0.901233732016
 H    5.414318051820   -1.906711227375   -0.901233732016
 H    4.902181758235   -0.437602723042    0.000000000000
 C    3.417229808196   -3.417750257142    0.000000000000
 H    3.924584456946   -3.806810470123    0.896916702915
 H    3.924584456946   -3.806810470123   -0.896916702915
 C    1.938947965436   -3.763383322495    0.000000000000
 H    1.805167946265   -4.853585840778    0.000000000000
 H    1.440496126414   -3.379051119458   -0.905783374701
 H    1.440496126414   -3.379051119458    0.905783374701
