25

 C   -1.945400464041    3.766990478051    0.000000000000
 H   -1.811630464041    4.857190478051    0.000000000000
 H   -1.446950464041    3.382660478051    0.905790000000
 H   -1.446950464041    3.382660478051   -0.905790000000
 C   -3.423690464041    3.421350478051    0.000000000000
 H   -3.931040464041    3.810410478051   -0.896920000000
 H   -3.931040464041    3.810410478051    0.896920000000
 O   -3.535130464041    1.973610478051    0.000000000000
 C   -4.912880464041    1.537350478051    0.000000000000
 H   -5.420770464041    1.910310478051   -0.901230000000
 H   -5.420770464041    1.910310478051    0.901230000000
 H   -4.908630464041    0.441190478051    0.000000000000
LI   -1.916420464041    1.069910478051    0.000000000000
 O    3.759015482435   -2.098594976805    0.000000000000
 C    5.136757780287   -1.662345522583    0.000000000000
 H    5.644650638806   -2.035302240502    0.901233732016
 H    5.644650638806   -2.035302240502   -0.901233732016
 H    5.132514345222   -0.566193736169    0.000000000000
 C    3.647562395183   -3.546341270270    0.000000000000
 H    4.154917043932   -3.935401483251    0.896916702915
 H    4.154917043932   -3.935401483251   -0.896916702915
 C    2.169280552422   -3.891974335622    0.000000000000
 H    2.035500533251   -4.982176853905    0.000000000000
 H    1.670828713401   -3.507642132585   -0.905783374701
 H    1.670828713401   -3.507642132585    0.905783374701
