25

 C   -2.027896227599    3.813046548334    0.000000000000
 H   -1.894126227599    4.903246548334    0.000000000000
 H   -1.529446227599    3.428716548334    0.905790000000
 H   -1.529446227599    3.428716548334   -0.905790000000
 C   -3.506186227599    3.467406548334    0.000000000000
 H   -4.013536227599    3.856466548334   -0.896920000000
 H   -4.013536227599    3.856466548334    0.896920000000
 O   -3.617626227599    2.019666548334    0.000000000000
 C   -4.995376227599    1.583406548334    0.000000000000
 H   -5.503266227599    1.956366548334   -0.901230000000
 H   -5.503266227599    1.956366548334    0.901230000000
 H   -4.991126227599    0.487246548334    0.000000000000
LI   -1.998916227599    1.115966548334    0.000000000000
 O    3.851148517229   -2.150031382056    0.000000000000
 C    5.228890815082   -1.713781927834    0.000000000000
 H    5.736783673601   -2.086738645753    0.901233732016
 H    5.736783673601   -2.086738645753   -0.901233732016
 H    5.224647380016   -0.617630141420    0.000000000000
 C    3.739695429977   -3.597777675521    0.000000000000
 H    4.247050078727   -3.986837888502    0.896916702915
 H    4.247050078727   -3.986837888502   -0.896916702915
 C    2.261413587217   -3.943410740873    0.000000000000
 H    2.127633568046   -5.033613259156    0.000000000000
 H    1.762961748195   -3.559078537836   -0.905783374701
 H    1.762961748195   -3.559078537836    0.905783374701
