25

 C   -2.110391991158    3.859102618617    0.000000000000
 H   -1.976621991158    4.949302618617    0.000000000000
 H   -1.611941991158    3.474772618617    0.905790000000
 H   -1.611941991158    3.474772618617   -0.905790000000
 C   -3.588681991158    3.513462618617    0.000000000000
 H   -4.096031991158    3.902522618617   -0.896920000000
 H   -4.096031991158    3.902522618617    0.896920000000
 O   -3.700121991158    2.065722618617    0.000000000000
 C   -5.077871991158    1.629462618617    0.000000000000
 H   -5.585761991158    2.002422618617   -0.901230000000
 H   -5.585761991158    2.002422618617    0.901230000000
 H   -5.073621991158    0.533302618617    0.000000000000
LI   -2.081411991158    1.162022618617    0.000000000000
 O    3.943281552024   -2.201467787307    0.000000000000
 C    5.321023849876   -1.765218333085    0.000000000000
 H    5.828916708395   -2.138175051004    0.901233732016
 H    5.828916708395   -2.138175051004   -0.901233732016
 H    5.316780414811   -0.669066546671    0.000000000000
 C    3.831828464772   -3.649214080772    0.000000000000
 H    4.339183113521   -4.038274293753    0.896916702915
 H    4.339183113521   -4.038274293753   -0.896916702915
 C    2.353546622011   -3.994847146124    0.000000000000
 H    2.219766602840   -5.085049664407    0.000000000000
 H    1.855094782990   -3.610514943087   -0.905783374701
 H    1.855094782990   -3.610514943087    0.905783374701
