25

 C   -2.275383518275    3.951214759183    0.000000000000
 H   -2.141613518275    5.041414759183    0.000000000000
 H   -1.776933518275    3.566884759183    0.905790000000
 H   -1.776933518275    3.566884759183   -0.905790000000
 C   -3.753673518275    3.605574759183    0.000000000000
 H   -4.261023518275    3.994634759183   -0.896920000000
 H   -4.261023518275    3.994634759183    0.896920000000
 O   -3.865113518275    2.157834759183    0.000000000000
 C   -5.242863518275    1.721574759183    0.000000000000
 H   -5.750753518275    2.094534759183   -0.901230000000
 H   -5.750753518275    2.094534759183    0.901230000000
 H   -5.238613518275    0.625414759183    0.000000000000
LI   -2.246403518275    1.254134759183    0.000000000000
 O    4.127547621613   -2.304340597809    0.000000000000
 C    5.505289919465   -1.868091143587    0.000000000000
 H    6.013182777984   -2.241047861506    0.901233732016
 H    6.013182777984   -2.241047861506   -0.901233732016
 H    5.501046484400   -0.771939357173    0.000000000000
 C    4.016094534361   -3.752086891274    0.000000000000
 H    4.523449183110   -4.141147104255    0.896916702915
 H    4.523449183110   -4.141147104255   -0.896916702915
 C    2.537812691600   -4.097719956626    0.000000000000
 H    2.404032672429   -5.187922474909    0.000000000000
 H    2.039360852579   -3.713387753589   -0.905783374701
 H    2.039360852579   -3.713387753589    0.905783374701
