25

 C   -2.316631400054    3.974242794325    0.000000000000
 H   -2.182861400054    5.064442794325    0.000000000000
 H   -1.818181400054    3.589912794325    0.905790000000
 H   -1.818181400054    3.589912794325   -0.905790000000
 C   -3.794921400054    3.628602794325    0.000000000000
 H   -4.302271400054    4.017662794325   -0.896920000000
 H   -4.302271400054    4.017662794325    0.896920000000
 O   -3.906361400054    2.180862794325    0.000000000000
 C   -5.284111400054    1.744602794325    0.000000000000
 H   -5.792001400054    2.117562794325   -0.901230000000
 H   -5.792001400054    2.117562794325    0.901230000000
 H   -5.279861400054    0.648442794325    0.000000000000
LI   -2.287651400054    1.277162794325    0.000000000000
 O    4.173614139010   -2.330058800434    0.000000000000
 C    5.551356436863   -1.893809346213    0.000000000000
 H    6.059249295382   -2.266766064132    0.901233732016
 H    6.059249295382   -2.266766064132   -0.901233732016
 H    5.547113001797   -0.797657559798    0.000000000000
 C    4.062161051758   -3.777805093899    0.000000000000
 H    4.569515700507   -4.166865306880    0.896916702915
 H    4.569515700507   -4.166865306880   -0.896916702915
 C    2.583879208998   -4.123438159252    0.000000000000
 H    2.450099189826   -5.213640677535    0.000000000000
 H    2.085427369976   -3.739105956215   -0.905783374701
 H    2.085427369976   -3.739105956215    0.905783374701
