25

 C   -2.440375045392    4.043326899749    0.000000000000
 H   -2.306605045392    5.133526899749    0.000000000000
 H   -1.941925045392    3.658996899749    0.905790000000
 H   -1.941925045392    3.658996899749   -0.905790000000
 C   -3.918665045392    3.697686899749    0.000000000000
 H   -4.426015045392    4.086746899749   -0.896920000000
 H   -4.426015045392    4.086746899749    0.896920000000
 O   -4.030105045392    2.249946899749    0.000000000000
 C   -5.407855045392    1.813686899749    0.000000000000
 H   -5.915745045392    2.186646899749   -0.901230000000
 H   -5.915745045392    2.186646899749    0.901230000000
 H   -5.403605045392    0.717526899749    0.000000000000
LI   -2.411395045392    1.346246899749    0.000000000000
 O    4.311813691202   -2.407213408311    0.000000000000
 C    5.689555989054   -1.970963954089    0.000000000000
 H    6.197448847573   -2.343920672008    0.901233732016
 H    6.197448847573   -2.343920672008   -0.901233732016
 H    5.685312553989   -0.874812167675    0.000000000000
 C    4.200360603950   -3.854959701776    0.000000000000
 H    4.707715252699   -4.244019914757    0.896916702915
 H    4.707715252699   -4.244019914757   -0.896916702915
 C    2.722078761189   -4.200592767128    0.000000000000
 H    2.588298742018   -5.290795285411    0.000000000000
 H    2.223626922168   -3.816260564091   -0.905783374701
 H    2.223626922168   -3.816260564091    0.905783374701
