25

 C   -2.564118690730    4.112411005174    0.000000000000
 H   -2.430348690730    5.202611005174    0.000000000000
 H   -2.065668690730    3.728081005174    0.905790000000
 H   -2.065668690730    3.728081005174   -0.905790000000
 C   -4.042408690730    3.766771005174    0.000000000000
 H   -4.549758690730    4.155831005174   -0.896920000000
 H   -4.549758690730    4.155831005174    0.896920000000
 O   -4.153848690730    2.319031005174    0.000000000000
 C   -5.531598690730    1.882771005174    0.000000000000
 H   -6.039488690730    2.255731005174   -0.901230000000
 H   -6.039488690730    2.255731005174    0.901230000000
 H   -5.527348690730    0.786611005174    0.000000000000
LI   -2.535138690730    1.415331005174    0.000000000000
 O    4.450013243394   -2.484368016187    0.000000000000
 C    5.827755541246   -2.048118561966    0.000000000000
 H    6.335648399765   -2.421075279885    0.901233732016
 H    6.335648399765   -2.421075279885   -0.901233732016
 H    5.823512106180   -0.951966775551    0.000000000000
 C    4.338560156142   -3.932114309652    0.000000000000
 H    4.845914804891   -4.321174522633    0.896916702915
 H    4.845914804891   -4.321174522633   -0.896916702915
 C    2.860278313381   -4.277747375005    0.000000000000
 H    2.726498294210   -5.367949893288    0.000000000000
 H    2.361826474360   -3.893415171968   -0.905783374701
 H    2.361826474360   -3.893415171968    0.905783374701
