25

 C   -2.687862336068    4.181495110599    0.000000000000
 H   -2.554092336068    5.271695110599    0.000000000000
 H   -2.189412336068    3.797165110599    0.905790000000
 H   -2.189412336068    3.797165110599   -0.905790000000
 C   -4.166152336068    3.835855110599    0.000000000000
 H   -4.673502336068    4.224915110599   -0.896920000000
 H   -4.673502336068    4.224915110599    0.896920000000
 O   -4.277592336068    2.388115110599    0.000000000000
 C   -5.655342336068    1.951855110599    0.000000000000
 H   -6.163232336068    2.324815110599   -0.901230000000
 H   -6.163232336068    2.324815110599    0.901230000000
 H   -5.651092336068    0.855695110599    0.000000000000
LI   -2.658882336068    1.484415110599    0.000000000000
 O    4.588212795586   -2.561522624064    0.000000000000
 C    5.965955093438   -2.125273169842    0.000000000000
 H    6.473847951957   -2.498229887761    0.901233732016
 H    6.473847951957   -2.498229887761   -0.901233732016
 H    5.961711658372   -1.029121383428    0.000000000000
 C    4.476759708333   -4.009268917529    0.000000000000
 H    4.984114357083   -4.398329130510    0.896916702915
 H    4.984114357083   -4.398329130510   -0.896916702915
 C    2.998477865573   -4.354901982881    0.000000000000
 H    2.864697846402   -5.445104501164    0.000000000000
 H    2.500026026551   -3.970569779844   -0.905783374701
 H    2.500026026551   -3.970569779844    0.905783374701
