25

 C   -2.811605981406    4.250579216023    0.000000000000
 H   -2.677835981406    5.340779216023    0.000000000000
 H   -2.313155981406    3.866249216023    0.905790000000
 H   -2.313155981406    3.866249216023   -0.905790000000
 C   -4.289895981406    3.904939216023    0.000000000000
 H   -4.797245981406    4.293999216023   -0.896920000000
 H   -4.797245981406    4.293999216023    0.896920000000
 O   -4.401335981406    2.457199216023    0.000000000000
 C   -5.779085981406    2.020939216023    0.000000000000
 H   -6.286975981406    2.393899216023   -0.901230000000
 H   -6.286975981406    2.393899216023    0.901230000000
 H   -5.774835981406    0.924779216023    0.000000000000
LI   -2.782625981406    1.553499216023    0.000000000000
 O    4.726412347778   -2.638677231940    0.000000000000
 C    6.104154645630   -2.202427777718    0.000000000000
 H    6.612047504149   -2.575384495638    0.901233732016
 H    6.612047504149   -2.575384495638   -0.901233732016
 H    6.099911210564   -1.106275991304    0.000000000000
 C    4.614959260525   -4.086423525405    0.000000000000
 H    5.122313909275   -4.475483738386    0.896916702915
 H    5.122313909275   -4.475483738386   -0.896916702915
 C    3.136677417765   -4.432056590758    0.000000000000
 H    3.002897398594   -5.522259109041    0.000000000000
 H    2.638225578743   -4.047724387721   -0.905783374701
 H    2.638225578743   -4.047724387721    0.905783374701
