25

 C   -2.852853863185    4.273607251165    0.000000000000
 H   -2.719083863185    5.363807251165    0.000000000000
 H   -2.354403863185    3.889277251165    0.905790000000
 H   -2.354403863185    3.889277251165   -0.905790000000
 C   -4.331143863185    3.927967251165    0.000000000000
 H   -4.838493863185    4.317027251165   -0.896920000000
 H   -4.838493863185    4.317027251165    0.896920000000
 O   -4.442583863185    2.480227251165    0.000000000000
 C   -5.820333863185    2.043967251165    0.000000000000
 H   -6.328223863185    2.416927251165   -0.901230000000
 H   -6.328223863185    2.416927251165    0.901230000000
 H   -5.816083863185    0.947807251165    0.000000000000
LI   -2.823873863185    1.576527251165    0.000000000000
 O    4.772478865175   -2.664395434566    0.000000000000
 C    6.150221163027   -2.228145980344    0.000000000000
 H    6.658114021546   -2.601102698263    0.901233732016
 H    6.658114021546   -2.601102698263   -0.901233732016
 H    6.145977727961   -1.131994193930    0.000000000000
 C    4.661025777922   -4.112141728031    0.000000000000
 H    5.168380426672   -4.501201941011    0.896916702915
 H    5.168380426672   -4.501201941011   -0.896916702915
 C    3.182743935162   -4.457774793383    0.000000000000
 H    3.048963915991   -5.547977311666    0.000000000000
 H    2.684292096140   -4.073442590346   -0.905783374701
 H    2.684292096140   -4.073442590346    0.905783374701
