25

 C   -3.059093272081    4.388747426872    0.000000000000
 H   -2.925323272081    5.478947426872    0.000000000000
 H   -2.560643272081    4.004417426872    0.905790000000
 H   -2.560643272081    4.004417426872   -0.905790000000
 C   -4.537383272081    4.043107426872    0.000000000000
 H   -5.044733272081    4.432167426872   -0.896920000000
 H   -5.044733272081    4.432167426872    0.896920000000
 O   -4.648823272081    2.595367426872    0.000000000000
 C   -6.026573272081    2.159107426872    0.000000000000
 H   -6.534463272081    2.532067426872   -0.901230000000
 H   -6.534463272081    2.532067426872    0.901230000000
 H   -6.022323272081    1.062947426872    0.000000000000
LI   -3.030113272081    1.691667426872    0.000000000000
 O    5.002811452161   -2.792986447693    0.000000000000
 C    6.380553750013   -2.356736993471    0.000000000000
 H    6.888446608532   -2.729693711391    0.901233732016
 H    6.888446608532   -2.729693711391   -0.901233732016
 H    6.376310314948   -1.260585207057    0.000000000000
 C    4.891358364909   -4.240732741158    0.000000000000
 H    5.398713013658   -4.629792954139    0.896916702915
 H    5.398713013658   -4.629792954139   -0.896916702915
 C    3.413076522148   -4.586365806511    0.000000000000
 H    3.279296502977   -5.676568324794    0.000000000000
 H    2.914624683127   -4.202033603474   -0.905783374701
 H    2.914624683127   -4.202033603474    0.905783374701
