25

 C   -3.347828444536    4.549943672863    0.000000000000
 H   -3.214058444536    5.640143672863    0.000000000000
 H   -2.849378444536    4.165613672863    0.905790000000
 H   -2.849378444536    4.165613672863   -0.905790000000
 C   -4.826118444536    4.204303672863    0.000000000000
 H   -5.333468444536    4.593363672863   -0.896920000000
 H   -5.333468444536    4.593363672863    0.896920000000
 O   -4.937558444536    2.756563672863    0.000000000000
 C   -6.315308444536    2.320303672863    0.000000000000
 H   -6.823198444536    2.693263672863   -0.901230000000
 H   -6.823198444536    2.693263672863    0.901230000000
 H   -6.311058444536    1.224143672863    0.000000000000
LI   -3.318848444536    1.852863672863    0.000000000000
 O    5.325277073942   -2.973013866072    0.000000000000
 C    6.703019371794   -2.536764411850    0.000000000000
 H    7.210912230313   -2.909721129769    0.901233732016
 H    7.210912230313   -2.909721129769   -0.901233732016
 H    6.698775936729   -1.440612625436    0.000000000000
 C    5.213823986690   -4.420760159537    0.000000000000
 H    5.721178635439   -4.809820372517    0.896916702915
 H    5.721178635439   -4.809820372517   -0.896916702915
 C    3.735542143929   -4.766393224889    0.000000000000
 H    3.601762124758   -5.856595743172    0.000000000000
 H    3.237090304908   -4.382061021852   -0.905783374701
 H    3.237090304908   -4.382061021852    0.905783374701
