9

 C   -2.012488616345    0.070341044902    0.000000000000
 H   -2.991415616345    0.562129044902    0.000000000000
 H   -1.905342616345   -0.569467955098    0.888272000000
 H   -1.905342616345   -0.569467955098   -0.888272000000
 C   -0.927861616345    1.115925044902    0.000000000000
 O   -1.088965616345    2.325476044902    0.000000000000
 O    0.314424383655    0.538917044902    0.000000000000
 H    0.948960383655    1.277480044902    0.000000000000
CS    0.403082524955   -0.457145068613    0.000000000000
