9

 C   -2.036918946802    0.344812472253    0.000000000000
 H   -3.015845946802    0.836600472253    0.000000000000
 H   -1.929772946802   -0.294996527747    0.888272000000
 H   -1.929772946802   -0.294996527747   -0.888272000000
 C   -0.952291946802    1.390396472253    0.000000000000
 O   -1.113395946802    2.599947472253    0.000000000000
 O    0.289994053198    0.813388472253    0.000000000000
 H    0.924530053198    1.551951472253    0.000000000000
CS    0.414115451018   -0.581098486669    0.000000000000
