9

 C   -2.043026529416    0.413430329090    0.000000000000
 H   -3.021953529416    0.905218329090    0.000000000000
 H   -1.935880529416   -0.226378670910    0.888272000000
 H   -1.935880529416   -0.226378670910   -0.888272000000
 C   -0.958399529416    1.459014329090    0.000000000000
 O   -1.119503529416    2.668565329090    0.000000000000
 O    0.283886470584    0.882006329090    0.000000000000
 H    0.918422470584    1.620569329090    0.000000000000
CS    0.416873682533   -0.612086841183    0.000000000000
