9

 C   -2.049134112030    0.482048185928    0.000000000000
 H   -3.028061112030    0.973836185928    0.000000000000
 H   -1.941988112030   -0.157760814072    0.888272000000
 H   -1.941988112030   -0.157760814072   -0.888272000000
 C   -0.964507112030    1.527632185928    0.000000000000
 O   -1.125611112030    2.737183185928    0.000000000000
 O    0.277778887970    0.950624185928    0.000000000000
 H    0.912314887970    1.689187185928    0.000000000000
CS    0.419631914049   -0.643075195697    0.000000000000
