9

 C   -2.061349277259    0.619283899603    0.000000000000
 H   -3.040276277259    1.111071899603    0.000000000000
 H   -1.954203277259   -0.020525100397    0.888272000000
 H   -1.954203277259   -0.020525100397   -0.888272000000
 C   -0.976722277259    1.664867899603    0.000000000000
 O   -1.137826277259    2.874418899603    0.000000000000
 O    0.265563722741    1.087859899603    0.000000000000
 H    0.900099722741    1.826422899603    0.000000000000
CS    0.425148377081   -0.705051904725    0.000000000000
