9

 C   -2.562171051625    6.245948160285    0.000000000000
 H   -3.541098051625    6.737736160285    0.000000000000
 H   -2.455025051625    5.606139160285    0.888272000000
 H   -2.455025051625    5.606139160285   -0.888272000000
 C   -1.477544051625    7.291532160285    0.000000000000
 O   -1.638648051625    8.501083160285    0.000000000000
 O   -0.235258051625    6.714524160285    0.000000000000
 H    0.399277948375    7.453087160285    0.000000000000
CS    0.651323361372   -3.246096974871    0.000000000000
