9

 C   -2.091887190330    0.962373183791    0.000000000000
 H   -3.070814190330    1.454161183791    0.000000000000
 H   -1.984741190330    0.322564183791    0.888272000000
 H   -1.984741190330    0.322564183791   -0.888272000000
 C   -1.007260190330    2.007957183791    0.000000000000
 O   -1.168364190330    3.217508183791    0.000000000000
 O    0.235025809670    1.430949183791    0.000000000000
 H    0.869561809670    2.169512183791    0.000000000000
CS    0.438939534659   -0.859993677295    0.000000000000
