9

 C   -2.116317520787    1.236844611141    0.000000000000
 H   -3.095244520787    1.728632611141    0.000000000000
 H   -2.009171520787    0.597035611141    0.888272000000
 H   -2.009171520787    0.597035611141   -0.888272000000
 C   -1.031690520787    2.282428611141    0.000000000000
 O   -1.192794520787    3.491979611141    0.000000000000
 O    0.210595479213    1.705420611141    0.000000000000
 H    0.845131479213    2.443983611141    0.000000000000
CS    0.449972460722   -0.983947095351    0.000000000000
