9

 C   -2.165178181701    1.785787465842    0.000000000000
 H   -3.144105181701    2.277575465842    0.000000000000
 H   -2.058032181701    1.145978465842    0.888272000000
 H   -2.058032181701    1.145978465842   -0.888272000000
 C   -1.080551181701    2.831371465842    0.000000000000
 O   -1.241655181701    4.040922465842    0.000000000000
 O    0.161734818299    2.254363465842    0.000000000000
 H    0.796270818299    2.992926465842    0.000000000000
CS    0.472038312848   -1.231853931463    0.000000000000
