9

 C   -2.171285764315    1.854405322680    0.000000000000
 H   -3.150212764315    2.346193322680    0.000000000000
 H   -2.064139764315    1.214596322680    0.888272000000
 H   -2.064139764315    1.214596322680   -0.888272000000
 C   -1.086658764315    2.899989322680    0.000000000000
 O   -1.247762764315    4.109540322680    0.000000000000
 O    0.155627235685    2.322981322680    0.000000000000
 H    0.790163235685    3.061544322680    0.000000000000
CS    0.474796544364   -1.262842285977    0.000000000000
