9

 C   -2.189608512157    2.060258893192    0.000000000000
 H   -3.168535512157    2.552046893192    0.000000000000
 H   -2.082462512157    1.420449893192    0.888272000000
 H   -2.082462512157    1.420449893192   -0.888272000000
 C   -1.104981512157    3.105842893192    0.000000000000
 O   -1.266085512157    4.315393893192    0.000000000000
 O    0.137304487843    2.528834893192    0.000000000000
 H    0.771840487843    3.267397893192    0.000000000000
CS    0.483071238911   -1.355807349519    0.000000000000
