9

 C   -2.220146425228    2.403348177380    0.000000000000
 H   -3.199073425228    2.895136177380    0.000000000000
 H   -2.113000425228    1.763539177380    0.888272000000
 H   -2.113000425228    1.763539177380   -0.888272000000
 C   -1.135519425228    3.448932177380    0.000000000000
 O   -1.296623425228    4.658483177380    0.000000000000
 O    0.106766574772    2.871924177380    0.000000000000
 H    0.741302574772    3.610487177380    0.000000000000
CS    0.496862396490   -1.510749122089    0.000000000000
