9

 C   -2.232361590457    2.540583891056    0.000000000000
 H   -3.211288590457    3.032371891056    0.000000000000
 H   -2.125215590457    1.900774891056    0.888272000000
 H   -2.125215590457    1.900774891056   -0.888272000000
 C   -1.147734590457    3.586167891056    0.000000000000
 O   -1.308838590457    4.795718891056    0.000000000000
 O    0.094551409543    3.009159891056    0.000000000000
 H    0.729087409543    3.747722891056    0.000000000000
CS    0.502378859522   -1.572725831116    0.000000000000
