9

 C   -2.256791920914    2.815055318406    0.000000000000
 H   -3.235718920914    3.306843318406    0.000000000000
 H   -2.149645920914    2.175246318406    0.888272000000
 H   -2.149645920914    2.175246318406   -0.888272000000
 C   -1.172164920914    3.860639318406    0.000000000000
 O   -1.333268920914    5.070190318406    0.000000000000
 O    0.070121079086    3.283631318406    0.000000000000
 H    0.704657079086    4.022194318406    0.000000000000
CS    0.513411785585   -1.696679249172    0.000000000000
