9

 C   -2.287329833985    3.158144602594    0.000000000000
 H   -3.266256833985    3.649932602594    0.000000000000
 H   -2.180183833985    2.518335602594    0.888272000000
 H   -2.180183833985    2.518335602594   -0.888272000000
 C   -1.202702833985    4.203728602594    0.000000000000
 O   -1.363806833985    5.413279602594    0.000000000000
 O    0.039583166015    3.626720602594    0.000000000000
 H    0.674119166015    4.365283602594    0.000000000000
CS    0.527202943163   -1.851621021742    0.000000000000
