9

 C   -2.293437416599    3.226762459431    0.000000000000
 H   -3.272364416599    3.718550459431    0.000000000000
 H   -2.186291416599    2.586953459431    0.888272000000
 H   -2.186291416599    2.586953459431   -0.888272000000
 C   -1.208810416599    4.272346459431    0.000000000000
 O   -1.369914416599    5.481897459431    0.000000000000
 O    0.033475583401    3.695338459431    0.000000000000
 H    0.668011583401    4.433901459431    0.000000000000
CS    0.529961174679   -1.882609376256    0.000000000000
