9

 C   -2.317867747056    3.501233886782    0.000000000000
 H   -3.296794747056    3.993021886782    0.000000000000
 H   -2.210721747056    2.861424886782    0.888272000000
 H   -2.210721747056    2.861424886782   -0.888272000000
 C   -1.233240747056    4.546817886782    0.000000000000
 O   -1.394344747056    5.756368886782    0.000000000000
 O    0.009045252944    3.969809886782    0.000000000000
 H    0.643581252944    4.708372886782    0.000000000000
CS    0.540994100742   -2.006562794312    0.000000000000
