9

 C   -2.330082912284    3.638469600457    0.000000000000
 H   -3.309009912284    4.130257600457    0.000000000000
 H   -2.222936912284    2.998660600457    0.888272000000
 H   -2.222936912284    2.998660600457   -0.888272000000
 C   -1.245455912284    4.684053600457    0.000000000000
 O   -1.406559912284    5.893604600457    0.000000000000
 O   -0.003169912284    4.107045600457    0.000000000000
 H    0.631366087716    4.845608600457    0.000000000000
CS    0.546510563774   -2.068539503340    0.000000000000
