9

 C   -2.366728407970    4.050176741482    0.000000000000
 H   -3.345655407970    4.541964741482    0.000000000000
 H   -2.259582407970    3.410367741482    0.888272000000
 H   -2.259582407970    3.410367741482   -0.888272000000
 C   -1.282101407970    5.095760741482    0.000000000000
 O   -1.443205407970    6.305311741482    0.000000000000
 O   -0.039815407970    4.518752741482    0.000000000000
 H    0.594720592030    5.257315741482    0.000000000000
CS    0.563059952868   -2.254469630424    0.000000000000
