9

 C   -2.372835990584    4.118794598320    0.000000000000
 H   -3.351762990584    4.610582598320    0.000000000000
 H   -2.265689990584    3.478985598320    0.888272000000
 H   -2.265689990584    3.478985598320   -0.888272000000
 C   -1.288208990584    5.164378598320    0.000000000000
 O   -1.449312990584    6.373929598320    0.000000000000
 O   -0.045922990584    4.587370598320    0.000000000000
 H    0.588613009416    5.325933598320    0.000000000000
CS    0.565818184384   -2.285457984938    0.000000000000
