9

 C   -2.397266321041    4.393266025670    0.000000000000
 H   -3.376193321041    4.885054025670    0.000000000000
 H   -2.290120321041    3.753457025670    0.888272000000
 H   -2.290120321041    3.753457025670   -0.888272000000
 C   -1.312639321041    5.438850025670    0.000000000000
 O   -1.473743321041    6.648401025670    0.000000000000
 O   -0.070353321041    4.861842025670    0.000000000000
 H    0.564182678959    5.600405025670    0.000000000000
CS    0.576851110447   -2.409411402994    0.000000000000
