9

 C   -2.421696651498    4.667737453021    0.000000000000
 H   -3.400623651498    5.159525453021    0.000000000000
 H   -2.314550651498    4.027928453021    0.888272000000
 H   -2.314550651498    4.027928453021   -0.888272000000
 C   -1.337069651498    5.713321453021    0.000000000000
 O   -1.498173651498    6.922872453021    0.000000000000
 O   -0.094783651498    5.136313453021    0.000000000000
 H    0.539752348502    5.874876453021    0.000000000000
CS    0.587884036510   -2.533364821050    0.000000000000
