9

 C   -2.427804234112    4.736355309858    0.000000000000
 H   -3.406731234112    5.228143309858    0.000000000000
 H   -2.320658234112    4.096546309858    0.888272000000
 H   -2.320658234112    4.096546309858   -0.888272000000
 C   -1.343177234112    5.781939309858    0.000000000000
 O   -1.504281234112    6.991490309858    0.000000000000
 O   -0.100891234112    5.204931309858    0.000000000000
 H    0.533644765888    5.943494309858    0.000000000000
CS    0.590642268026   -2.564353175564    0.000000000000
