9

 C   -2.458342147183    5.079444594046    0.000000000000
 H   -3.437269147183    5.571232594046    0.000000000000
 H   -2.351196147183    4.439635594046    0.888272000000
 H   -2.351196147183    4.439635594046   -0.888272000000
 C   -1.373715147183    6.125028594046    0.000000000000
 O   -1.534819147183    7.334579594046    0.000000000000
 O   -0.131429147183    5.548020594046    0.000000000000
 H    0.503106852817    6.286583594046    0.000000000000
CS    0.604433425604   -2.719294948134    0.000000000000
