9

 C   -2.476664895026    5.285298164559    0.000000000000
 H   -3.455591895026    5.777086164559    0.000000000000
 H   -2.369518895026    4.645489164559    0.888272000000
 H   -2.369518895026    4.645489164559   -0.888272000000
 C   -1.392037895026    6.330882164559    0.000000000000
 O   -1.553141895026    7.540433164559    0.000000000000
 O   -0.149751895026    5.753874164559    0.000000000000
 H    0.484784104974    6.492437164559    0.000000000000
CS    0.612708120152   -2.812260011676    0.000000000000
