9

 C   -2.488880060254    5.422533878234    0.000000000000
 H   -3.467807060254    5.914321878234    0.000000000000
 H   -2.381734060254    4.782724878234    0.888272000000
 H   -2.381734060254    4.782724878234   -0.888272000000
 C   -1.404253060254    6.468117878234    0.000000000000
 O   -1.565357060254    7.677668878234    0.000000000000
 O   -0.161967060254    5.891109878234    0.000000000000
 H    0.472568939746    6.629672878234    0.000000000000
CS    0.618224583183   -2.874236720704    0.000000000000
