9

 C   -2.494987642868    5.491151735072    0.000000000000
 H   -3.473914642868    5.982939735072    0.000000000000
 H   -2.387841642868    4.851342735072    0.888272000000
 H   -2.387841642868    4.851342735072   -0.888272000000
 C   -1.410360642868    6.536735735072    0.000000000000
 O   -1.571464642868    7.746286735072    0.000000000000
 O   -0.168074642868    5.959727735072    0.000000000000
 H    0.466461357132    6.698290735072    0.000000000000
CS    0.620982814699   -2.905225075218    0.000000000000
