9

 C   -2.519417973325    5.765623162422    0.000000000000
 H   -3.498344973325    6.257411162422    0.000000000000
 H   -2.412271973325    5.125814162422    0.888272000000
 H   -2.412271973325    5.125814162422   -0.888272000000
 C   -1.434790973325    6.811207162422    0.000000000000
 O   -1.595894973325    8.020758162422    0.000000000000
 O   -0.192504973325    6.234199162422    0.000000000000
 H    0.442031026675    6.972762162422    0.000000000000
CS    0.632015740762   -3.029178493273    0.000000000000
