9

 C   -2.525525555939    5.834241019260    0.000000000000
 H   -3.504452555939    6.326029019260    0.000000000000
 H   -2.418379555939    5.194432019260    0.888272000000
 H   -2.418379555939    5.194432019260   -0.888272000000
 C   -1.440898555939    6.879825019260    0.000000000000
 O   -1.602002555939    8.089376019260    0.000000000000
 O   -0.198612555939    6.302817019260    0.000000000000
 H    0.435923444061    7.041380019260    0.000000000000
CS    0.634773972278   -3.060166847787    0.000000000000
