9

 C   -2.543848303782    6.040094589773    0.000000000000
 H   -3.522775303782    6.531882589773    0.000000000000
 H   -2.436702303782    5.400285589773    0.888272000000
 H   -2.436702303782    5.400285589773   -0.888272000000
 C   -1.459221303782    7.085678589773    0.000000000000
 O   -1.620325303782    8.295229589773    0.000000000000
 O   -0.216935303782    6.508670589773    0.000000000000
 H    0.417600696218    7.247233589773    0.000000000000
CS    0.643048666825   -3.153131911329    0.000000000000
