9

 C   -2.556063469010    6.177330303448    0.000000000000
 H   -3.534990469010    6.669118303448    0.000000000000
 H   -2.448917469010    5.537521303448    0.888272000000
 H   -2.448917469010    5.537521303448   -0.888272000000
 C   -1.471436469010    7.222914303448    0.000000000000
 O   -1.632540469010    8.432465303448    0.000000000000
 O   -0.229150469010    6.645906303448    0.000000000000
 H    0.405385530990    7.384469303448    0.000000000000
CS    0.648565129856   -3.215108620357    0.000000000000
