19

 H    3.493834486780    1.380529976340   -0.904790000000
 H    2.270804486780    2.330749976340    0.000000000000
 H    3.493834486780    1.380529976340    0.904790000000
 C    2.873934486780    1.413799976340    0.000000000000
 S    1.734084486780   -0.000000023660    0.000000000000
 C    2.873934486780   -1.413800023660    0.000000000000
 H    3.493834486780   -1.380530023660    0.904790000000
 H    2.270804486780   -2.330750023660    0.000000000000
 H    3.493834486780   -1.380530023660   -0.904790000000
LI   -0.569645513220   -0.000000023660    0.000000000000
 S   -1.669645513220   -0.000000023660    0.000000000000
 C   -2.809489012913   -1.413800122616    0.000000000000
 H   -3.429389984257   -1.380532660071    0.904786969437
 H   -2.206360230921   -2.330755832143    0.000000000000
 H   -3.429389984257   -1.380532660071   -0.904786969437
 C   -2.809488766158    1.413800274236    0.000000000000
 H   -3.429389743309    1.380532919884   -0.904786969437
 H   -2.206359824128    2.330755878497    0.000000000000
 H   -3.429389743309    1.380532919884    0.904786969437
