19

 H    3.541157727214    1.380529976340   -0.904790000000
 H    2.318127727214    2.330749976340    0.000000000000
 H    3.541157727214    1.380529976340    0.904790000000
 C    2.921257727214    1.413799976340    0.000000000000
 S    1.781407727214   -0.000000023660    0.000000000000
 C    2.921257727214   -1.413800023660    0.000000000000
 H    3.541157727214   -1.380530023660    0.904790000000
 H    2.318127727214   -2.330750023660    0.000000000000
 H    3.541157727214   -1.380530023660   -0.904790000000
LI   -0.522322272786   -0.000000023660    0.000000000000
 S   -1.722322272786   -0.000000023660    0.000000000000
 C   -2.862165772479   -1.413800122616    0.000000000000
 H   -3.482066743824   -1.380532660071    0.904786969437
 H   -2.259036990488   -2.330755832143    0.000000000000
 H   -3.482066743824   -1.380532660071   -0.904786969437
 C   -2.862165525725    1.413800274236    0.000000000000
 H   -3.482066502875    1.380532919884   -0.904786969437
 H   -2.259036583694    2.330755878497    0.000000000000
 H   -3.482066502875    1.380532919884    0.904786969437
