19

 H    3.588480967647    1.380529976340   -0.904790000000
 H    2.365450967647    2.330749976340    0.000000000000
 H    3.588480967647    1.380529976340    0.904790000000
 C    2.968580967647    1.413799976340    0.000000000000
 S    1.828730967647   -0.000000023660    0.000000000000
 C    2.968580967647   -1.413800023660    0.000000000000
 H    3.588480967647   -1.380530023660    0.904790000000
 H    2.365450967647   -2.330750023660    0.000000000000
 H    3.588480967647   -1.380530023660   -0.904790000000
LI   -0.474999032353   -0.000000023660    0.000000000000
 S   -1.774999032353   -0.000000023660    0.000000000000
 C   -2.914842532046   -1.413800122616    0.000000000000
 H   -3.534743503390   -1.380532660071    0.904786969437
 H   -2.311713750054   -2.330755832143    0.000000000000
 H   -3.534743503390   -1.380532660071   -0.904786969437
 C   -2.914842285291    1.413800274236    0.000000000000
 H   -3.534743262442    1.380532919884   -0.904786969437
 H   -2.311713343261    2.330755878497    0.000000000000
 H   -3.534743262442    1.380532919884    0.904786969437
