19

 H    3.635804208080    1.380529976340   -0.904790000000
 H    2.412774208080    2.330749976340    0.000000000000
 H    3.635804208080    1.380529976340    0.904790000000
 C    3.015904208080    1.413799976340    0.000000000000
 S    1.876054208080   -0.000000023660    0.000000000000
 C    3.015904208080   -1.413800023660    0.000000000000
 H    3.635804208080   -1.380530023660    0.904790000000
 H    2.412774208080   -2.330750023660    0.000000000000
 H    3.635804208080   -1.380530023660   -0.904790000000
LI   -0.427675791920   -0.000000023660    0.000000000000
 S   -1.827675791920   -0.000000023660    0.000000000000
 C   -2.967519291613   -1.413800122616    0.000000000000
 H   -3.587420262957   -1.380532660071    0.904786969437
 H   -2.364390509621   -2.330755832143    0.000000000000
 H   -3.587420262957   -1.380532660071   -0.904786969437
 C   -2.967519044858    1.413800274236    0.000000000000
 H   -3.587420022008    1.380532919884   -0.904786969437
 H   -2.364390102827    2.330755878497    0.000000000000
 H   -3.587420022008    1.380532919884    0.904786969437
