19

 H    3.730450688947    1.380529976340   -0.904790000000
 H    2.507420688947    2.330749976340    0.000000000000
 H    3.730450688947    1.380529976340    0.904790000000
 C    3.110550688947    1.413799976340    0.000000000000
 S    1.970700688947   -0.000000023660    0.000000000000
 C    3.110550688947   -1.413800023660    0.000000000000
 H    3.730450688947   -1.380530023660    0.904790000000
 H    2.507420688947   -2.330750023660    0.000000000000
 H    3.730450688947   -1.380530023660   -0.904790000000
LI   -0.333029311053   -0.000000023660    0.000000000000
 S   -1.933029311053   -0.000000023660    0.000000000000
 C   -3.072872810746   -1.413800122616    0.000000000000
 H   -3.692773782090   -1.380532660071    0.904786969437
 H   -2.469744028754   -2.330755832143    0.000000000000
 H   -3.692773782090   -1.380532660071   -0.904786969437
 C   -3.072872563991    1.413800274236    0.000000000000
 H   -3.692773541141    1.380532919884   -0.904786969437
 H   -2.469743621960    2.330755878497    0.000000000000
 H   -3.692773541141    1.380532919884    0.904786969437
