19

 H    3.777773929381    1.380529976340   -0.904790000000
 H    2.554743929381    2.330749976340    0.000000000000
 H    3.777773929381    1.380529976340    0.904790000000
 C    3.157873929381    1.413799976340    0.000000000000
 S    2.018023929381   -0.000000023660    0.000000000000
 C    3.157873929381   -1.413800023660    0.000000000000
 H    3.777773929381   -1.380530023660    0.904790000000
 H    2.554743929381   -2.330750023660    0.000000000000
 H    3.777773929381   -1.380530023660   -0.904790000000
LI   -0.285706070619   -0.000000023660    0.000000000000
 S   -1.985706070619   -0.000000023660    0.000000000000
 C   -3.125549570312   -1.413800122616    0.000000000000
 H   -3.745450541656   -1.380532660071    0.904786969437
 H   -2.522420788321   -2.330755832143    0.000000000000
 H   -3.745450541656   -1.380532660071   -0.904786969437
 C   -3.125549323558    1.413800274236    0.000000000000
 H   -3.745450300708    1.380532919884   -0.904786969437
 H   -2.522420381527    2.330755878497    0.000000000000
 H   -3.745450300708    1.380532919884    0.904786969437
