19

 H    3.872420410247    1.380529976340   -0.904790000000
 H    2.649390410247    2.330749976340    0.000000000000
 H    3.872420410247    1.380529976340    0.904790000000
 C    3.252520410248    1.413799976340    0.000000000000
 S    2.112670410247   -0.000000023660    0.000000000000
 C    3.252520410248   -1.413800023660    0.000000000000
 H    3.872420410247   -1.380530023660    0.904790000000
 H    2.649390410247   -2.330750023660    0.000000000000
 H    3.872420410247   -1.380530023660   -0.904790000000
LI   -0.191059589752   -0.000000023660    0.000000000000
 S   -2.091059589752   -0.000000023660    0.000000000000
 C   -3.230903089445   -1.413800122616    0.000000000000
 H   -3.850804060790   -1.380532660071    0.904786969437
 H   -2.627774307454   -2.330755832143    0.000000000000
 H   -3.850804060790   -1.380532660071   -0.904786969437
 C   -3.230902842691    1.413800274236    0.000000000000
 H   -3.850803819841    1.380532919884   -0.904786969437
 H   -2.627773900660    2.330755878497    0.000000000000
 H   -3.850803819841    1.380532919884    0.904786969437
