19

 H    3.919743650681    1.380529976340   -0.904790000000
 H    2.696713650681    2.330749976340    0.000000000000
 H    3.919743650681    1.380529976340    0.904790000000
 C    3.299843650681    1.413799976340    0.000000000000
 S    2.159993650681   -0.000000023660    0.000000000000
 C    3.299843650681   -1.413800023660    0.000000000000
 H    3.919743650681   -1.380530023660    0.904790000000
 H    2.696713650681   -2.330750023660    0.000000000000
 H    3.919743650681   -1.380530023660   -0.904790000000
LI   -0.143736349319   -0.000000023660    0.000000000000
 S   -2.143736349319   -0.000000023660    0.000000000000
 C   -3.283579849012   -1.413800122616    0.000000000000
 H   -3.903480820356   -1.380532660071    0.904786969437
 H   -2.680451067020   -2.330755832143    0.000000000000
 H   -3.903480820356   -1.380532660071   -0.904786969437
 C   -3.283579602257    1.413800274236    0.000000000000
 H   -3.903480579408    1.380532919884   -0.904786969437
 H   -2.680450660227    2.330755878497    0.000000000000
 H   -3.903480579408    1.380532919884    0.904786969437
