19

 H    3.967066891114    1.380529976340   -0.904790000000
 H    2.744036891114    2.330749976340    0.000000000000
 H    3.967066891114    1.380529976340    0.904790000000
 C    3.347166891114    1.413799976340    0.000000000000
 S    2.207316891114   -0.000000023660    0.000000000000
 C    3.347166891114   -1.413800023660    0.000000000000
 H    3.967066891114   -1.380530023660    0.904790000000
 H    2.744036891114   -2.330750023660    0.000000000000
 H    3.967066891114   -1.380530023660   -0.904790000000
LI   -0.096413108886   -0.000000023660    0.000000000000
 S   -2.196413108886   -0.000000023660    0.000000000000
 C   -3.336256608579   -1.413800122616    0.000000000000
 H   -3.956157579923   -1.380532660071    0.904786969437
 H   -2.733127826587   -2.330755832143    0.000000000000
 H   -3.956157579923   -1.380532660071   -0.904786969437
 C   -3.336256361824    1.413800274236    0.000000000000
 H   -3.956157338974    1.380532919884   -0.904786969437
 H   -2.733127419793    2.330755878497    0.000000000000
 H   -3.956157338974    1.380532919884    0.904786969437
