19

 H    4.014390131548    1.380529976340   -0.904790000000
 H    2.791360131548    2.330749976340    0.000000000000
 H    4.014390131548    1.380529976340    0.904790000000
 C    3.394490131548    1.413799976340    0.000000000000
 S    2.254640131548   -0.000000023660    0.000000000000
 C    3.394490131548   -1.413800023660    0.000000000000
 H    4.014390131548   -1.380530023660    0.904790000000
 H    2.791360131548   -2.330750023660    0.000000000000
 H    4.014390131548   -1.380530023660   -0.904790000000
LI   -0.049089868452   -0.000000023660    0.000000000000
 S   -2.249089868452   -0.000000023660    0.000000000000
 C   -3.388933368145   -1.413800122616    0.000000000000
 H   -4.008834339489   -1.380532660071    0.904786969437
 H   -2.785804586154   -2.330755832143    0.000000000000
 H   -4.008834339489   -1.380532660071   -0.904786969437
 C   -3.388933121391    1.413800274236    0.000000000000
 H   -4.008834098541    1.380532919884   -0.904786969437
 H   -2.785804179360    2.330755878497    0.000000000000
 H   -4.008834098541    1.380532919884    0.904786969437
