19

 H    4.061713371981    1.380529976340   -0.904790000000
 H    2.838683371981    2.330749976340    0.000000000000
 H    4.061713371981    1.380529976340    0.904790000000
 C    3.441813371981    1.413799976340    0.000000000000
 S    2.301963371981   -0.000000023660    0.000000000000
 C    3.441813371981   -1.413800023660    0.000000000000
 H    4.061713371981   -1.380530023660    0.904790000000
 H    2.838683371981   -2.330750023660    0.000000000000
 H    4.061713371981   -1.380530023660   -0.904790000000
LI   -0.001766628019   -0.000000023660    0.000000000000
 S   -2.301766628019   -0.000000023660    0.000000000000
 C   -3.441610127712   -1.413800122616    0.000000000000
 H   -4.061511099056   -1.380532660071    0.904786969437
 H   -2.838481345720   -2.330755832143    0.000000000000
 H   -4.061511099056   -1.380532660071   -0.904786969437
 C   -3.441609880957    1.413800274236    0.000000000000
 H   -4.061510858108    1.380532919884   -0.904786969437
 H   -2.838480938927    2.330755878497    0.000000000000
 H   -4.061510858108    1.380532919884    0.904786969437
