19

 H    4.156359852848    1.380529976340   -0.904790000000
 H    2.933329852848    2.330749976340    0.000000000000
 H    4.156359852848    1.380529976340    0.904790000000
 C    3.536459852848    1.413799976340    0.000000000000
 S    2.396609852848   -0.000000023660    0.000000000000
 C    3.536459852848   -1.413800023660    0.000000000000
 H    4.156359852848   -1.380530023660    0.904790000000
 H    2.933329852848   -2.330750023660    0.000000000000
 H    4.156359852848   -1.380530023660   -0.904790000000
LI    0.092879852848   -0.000000023660    0.000000000000
 S   -2.407120147152   -0.000000023660    0.000000000000
 C   -3.546963646845   -1.413800122616    0.000000000000
 H   -4.166864618189   -1.380532660071    0.904786969437
 H   -2.943834864853   -2.330755832143    0.000000000000
 H   -4.166864618189   -1.380532660071   -0.904786969437
 C   -3.546963400090    1.413800274236    0.000000000000
 H   -4.166864377241    1.380532919884   -0.904786969437
 H   -2.943834458060    2.330755878497    0.000000000000
 H   -4.166864377241    1.380532919884    0.904786969437
