19

 H    4.251006333715    1.380529976340   -0.904790000000
 H    3.027976333715    2.330749976340    0.000000000000
 H    4.251006333715    1.380529976340    0.904790000000
 C    3.631106333715    1.413799976340    0.000000000000
 S    2.491256333715   -0.000000023660    0.000000000000
 C    3.631106333715   -1.413800023660    0.000000000000
 H    4.251006333715   -1.380530023660    0.904790000000
 H    3.027976333715   -2.330750023660    0.000000000000
 H    4.251006333715   -1.380530023660   -0.904790000000
LI    0.187526333715   -0.000000023660    0.000000000000
 S   -2.512473666285   -0.000000023660    0.000000000000
 C   -3.652317165978   -1.413800122616    0.000000000000
 H   -4.272218137322   -1.380532660071    0.904786969437
 H   -3.049188383986   -2.330755832143    0.000000000000
 H   -4.272218137322   -1.380532660071   -0.904786969437
 C   -3.652316919223    1.413800274236    0.000000000000
 H   -4.272217896374    1.380532919884   -0.904786969437
 H   -3.049187977193    2.330755878497    0.000000000000
 H   -4.272217896374    1.380532919884    0.904786969437
