19

 H    4.345652814582    1.380529976340   -0.904790000000
 H    3.122622814582    2.330749976340    0.000000000000
 H    4.345652814582    1.380529976340    0.904790000000
 C    3.725752814582    1.413799976340    0.000000000000
 S    2.585902814582   -0.000000023660    0.000000000000
 C    3.725752814582   -1.413800023660    0.000000000000
 H    4.345652814582   -1.380530023660    0.904790000000
 H    3.122622814582   -2.330750023660    0.000000000000
 H    4.345652814582   -1.380530023660   -0.904790000000
LI    0.282172814582   -0.000000023660    0.000000000000
 S   -2.617827185418   -0.000000023660    0.000000000000
 C   -3.757670685111   -1.413800122616    0.000000000000
 H   -4.377571656455   -1.380532660071    0.904786969437
 H   -3.154541903120   -2.330755832143    0.000000000000
 H   -4.377571656455   -1.380532660071   -0.904786969437
 C   -3.757670438357    1.413800274236    0.000000000000
 H   -4.377571415507    1.380532919884   -0.904786969437
 H   -3.154541496326    2.330755878497    0.000000000000
 H   -4.377571415507    1.380532919884    0.904786969437
