19

 H    4.440299295449    1.380529976340   -0.904790000000
 H    3.217269295449    2.330749976340    0.000000000000
 H    4.440299295449    1.380529976340    0.904790000000
 C    3.820399295449    1.413799976340    0.000000000000
 S    2.680549295449   -0.000000023660    0.000000000000
 C    3.820399295449   -1.413800023660    0.000000000000
 H    4.440299295449   -1.380530023660    0.904790000000
 H    3.217269295449   -2.330750023660    0.000000000000
 H    4.440299295449   -1.380530023660   -0.904790000000
LI    0.376819295449   -0.000000023660    0.000000000000
 S   -2.723180704551   -0.000000023660    0.000000000000
 C   -3.863024204244   -1.413800122616    0.000000000000
 H   -4.482925175589   -1.380532660071    0.904786969437
 H   -3.259895422253   -2.330755832143    0.000000000000
 H   -4.482925175589   -1.380532660071   -0.904786969437
 C   -3.863023957490    1.413800274236    0.000000000000
 H   -4.482924934640    1.380532919884   -0.904786969437
 H   -3.259895015459    2.330755878497    0.000000000000
 H   -4.482924934640    1.380532919884    0.904786969437
