19

 H    4.487622535882    1.380529976340   -0.904790000000
 H    3.264592535882    2.330749976340    0.000000000000
 H    4.487622535882    1.380529976340    0.904790000000
 C    3.867722535882    1.413799976340    0.000000000000
 S    2.727872535882   -0.000000023660    0.000000000000
 C    3.867722535882   -1.413800023660    0.000000000000
 H    4.487622535882   -1.380530023660    0.904790000000
 H    3.264592535882   -2.330750023660    0.000000000000
 H    4.487622535882   -1.380530023660   -0.904790000000
LI    0.424142535882   -0.000000023660    0.000000000000
 S   -2.775857464118   -0.000000023660    0.000000000000
 C   -3.915700963811   -1.413800122616    0.000000000000
 H   -4.535601935155   -1.380532660071    0.904786969437
 H   -3.312572181819   -2.330755832143    0.000000000000
 H   -4.535601935155   -1.380532660071   -0.904786969437
 C   -3.915700717056    1.413800274236    0.000000000000
 H   -4.535601694207    1.380532919884   -0.904786969437
 H   -3.312571775026    2.330755878497    0.000000000000
 H   -4.535601694207    1.380532919884    0.904786969437
