19

 H    4.534945776315    1.380529976340   -0.904790000000
 H    3.311915776315    2.330749976340    0.000000000000
 H    4.534945776315    1.380529976340    0.904790000000
 C    3.915045776315    1.413799976340    0.000000000000
 S    2.775195776315   -0.000000023660    0.000000000000
 C    3.915045776315   -1.413800023660    0.000000000000
 H    4.534945776315   -1.380530023660    0.904790000000
 H    3.311915776315   -2.330750023660    0.000000000000
 H    4.534945776315   -1.380530023660   -0.904790000000
LI    0.471465776315   -0.000000023660    0.000000000000
 S   -2.828534223685   -0.000000023660    0.000000000000
 C   -3.968377723378   -1.413800122616    0.000000000000
 H   -4.588278694722   -1.380532660071    0.904786969437
 H   -3.365248941386   -2.330755832143    0.000000000000
 H   -4.588278694722   -1.380532660071   -0.904786969437
 C   -3.968377476623    1.413800274236    0.000000000000
 H   -4.588278453773    1.380532919884   -0.904786969437
 H   -3.365248534592    2.330755878497    0.000000000000
 H   -4.588278453773    1.380532919884    0.904786969437
