19

 H    4.629592257182    1.380529976340   -0.904790000000
 H    3.406562257182    2.330749976340    0.000000000000
 H    4.629592257182    1.380529976340    0.904790000000
 C    4.009692257182    1.413799976340    0.000000000000
 S    2.869842257182   -0.000000023660    0.000000000000
 C    4.009692257182   -1.413800023660    0.000000000000
 H    4.629592257182   -1.380530023660    0.904790000000
 H    3.406562257182   -2.330750023660    0.000000000000
 H    4.629592257182   -1.380530023660   -0.904790000000
LI    0.566112257182   -0.000000023660    0.000000000000
 S   -2.933887742818   -0.000000023660    0.000000000000
 C   -4.073731242511   -1.413800122616    0.000000000000
 H   -4.693632213855   -1.380532660071    0.904786969437
 H   -3.470602460519   -2.330755832143    0.000000000000
 H   -4.693632213855   -1.380532660071   -0.904786969437
 C   -4.073730995756    1.413800274236    0.000000000000
 H   -4.693631972906    1.380532919884   -0.904786969437
 H   -3.470602053725    2.330755878497    0.000000000000
 H   -4.693631972906    1.380532919884    0.904786969437
