19

 H    4.866208459349    1.380529976340   -0.904790000000
 H    3.643178459349    2.330749976340    0.000000000000
 H    4.866208459349    1.380529976340    0.904790000000
 C    4.246308459349    1.413799976340    0.000000000000
 S    3.106458459349   -0.000000023660    0.000000000000
 C    4.246308459349   -1.413800023660    0.000000000000
 H    4.866208459349   -1.380530023660    0.904790000000
 H    3.643178459349   -2.330750023660    0.000000000000
 H    4.866208459349   -1.380530023660   -0.904790000000
LI    0.802728459349   -0.000000023660    0.000000000000
 S   -3.197271540651   -0.000000023660    0.000000000000
 C   -4.337115040344   -1.413800122616    0.000000000000
 H   -4.957016011688   -1.380532660071    0.904786969437
 H   -3.733986258352   -2.330755832143    0.000000000000
 H   -4.957016011688   -1.380532660071   -0.904786969437
 C   -4.337114793589    1.413800274236    0.000000000000
 H   -4.957015770739    1.380532919884   -0.904786969437
 H   -3.733985851558    2.330755878497    0.000000000000
 H   -4.957015770739    1.380532919884    0.904786969437
