19

 H    5.008178180650    1.380529976340   -0.904790000000
 H    3.785148180650    2.330749976340    0.000000000000
 H    5.008178180650    1.380529976340    0.904790000000
 C    4.388278180650    1.413799976340    0.000000000000
 S    3.248428180650   -0.000000023660    0.000000000000
 C    4.388278180650   -1.413800023660    0.000000000000
 H    5.008178180650   -1.380530023660    0.904790000000
 H    3.785148180650   -2.330750023660    0.000000000000
 H    5.008178180650   -1.380530023660   -0.904790000000
LI    0.944698180650   -0.000000023660    0.000000000000
 S   -3.355301819350   -0.000000023660    0.000000000000
 C   -4.495145319043   -1.413800122616    0.000000000000
 H   -5.115046290387   -1.380532660071    0.904786969437
 H   -3.892016537052   -2.330755832143    0.000000000000
 H   -5.115046290387   -1.380532660071   -0.904786969437
 C   -4.495145072289    1.413800274236    0.000000000000
 H   -5.115046049439    1.380532919884   -0.904786969437
 H   -3.892016130258    2.330755878497    0.000000000000
 H   -5.115046049439    1.380532919884    0.904786969437
