19

 H    5.055501421083    1.380529976340   -0.904790000000
 H    3.832471421083    2.330749976340    0.000000000000
 H    5.055501421083    1.380529976340    0.904790000000
 C    4.435601421083    1.413799976340    0.000000000000
 S    3.295751421083   -0.000000023660    0.000000000000
 C    4.435601421083   -1.413800023660    0.000000000000
 H    5.055501421083   -1.380530023660    0.904790000000
 H    3.832471421083   -2.330750023660    0.000000000000
 H    5.055501421083   -1.380530023660   -0.904790000000
LI    0.992021421083   -0.000000023660    0.000000000000
 S   -3.407978578917   -0.000000023660    0.000000000000
 C   -4.547822078610   -1.413800122616    0.000000000000
 H   -5.167723049954   -1.380532660071    0.904786969437
 H   -3.944693296618   -2.330755832143    0.000000000000
 H   -5.167723049954   -1.380532660071   -0.904786969437
 C   -4.547821831855    1.413800274236    0.000000000000
 H   -5.167722809006    1.380532919884   -0.904786969437
 H   -3.944692889825    2.330755878497    0.000000000000
 H   -5.167722809006    1.380532919884    0.904786969437
