19

 H    5.150147901950    1.380529976340   -0.904790000000
 H    3.927117901950    2.330749976340    0.000000000000
 H    5.150147901950    1.380529976340    0.904790000000
 C    4.530247901950    1.413799976340    0.000000000000
 S    3.390397901950   -0.000000023660    0.000000000000
 C    4.530247901950   -1.413800023660    0.000000000000
 H    5.150147901950   -1.380530023660    0.904790000000
 H    3.927117901950   -2.330750023660    0.000000000000
 H    5.150147901950   -1.380530023660   -0.904790000000
LI    1.086667901950   -0.000000023660    0.000000000000
 S   -3.513332098050   -0.000000023660    0.000000000000
 C   -4.653175597743   -1.413800122616    0.000000000000
 H   -5.273076569087   -1.380532660071    0.904786969437
 H   -4.050046815751   -2.330755832143    0.000000000000
 H   -5.273076569087   -1.380532660071   -0.904786969437
 C   -4.653175350988    1.413800274236    0.000000000000
 H   -5.273076328139    1.380532919884   -0.904786969437
 H   -4.050046408958    2.330755878497    0.000000000000
 H   -5.273076328139    1.380532919884    0.904786969437
