19

 H    5.244794382817    1.380529976340   -0.904790000000
 H    4.021764382817    2.330749976340    0.000000000000
 H    5.244794382817    1.380529976340    0.904790000000
 C    4.624894382817    1.413799976340    0.000000000000
 S    3.485044382817   -0.000000023660    0.000000000000
 C    4.624894382817   -1.413800023660    0.000000000000
 H    5.244794382817   -1.380530023660    0.904790000000
 H    4.021764382817   -2.330750023660    0.000000000000
 H    5.244794382817   -1.380530023660   -0.904790000000
LI    1.181314382817   -0.000000023660    0.000000000000
 S   -3.618685617183   -0.000000023660    0.000000000000
 C   -4.758529116876   -1.413800122616    0.000000000000
 H   -5.378430088220   -1.380532660071    0.904786969437
 H   -4.155400334885   -2.330755832143    0.000000000000
 H   -5.378430088220   -1.380532660071   -0.904786969437
 C   -4.758528870122    1.413800274236    0.000000000000
 H   -5.378429847272    1.380532919884   -0.904786969437
 H   -4.155399928091    2.330755878497    0.000000000000
 H   -5.378429847272    1.380532919884    0.904786969437
