19

 H    5.292117623250    1.380529976340   -0.904790000000
 H    4.069087623250    2.330749976340    0.000000000000
 H    5.292117623250    1.380529976340    0.904790000000
 C    4.672217623250    1.413799976340    0.000000000000
 S    3.532367623250   -0.000000023660    0.000000000000
 C    4.672217623250   -1.413800023660    0.000000000000
 H    5.292117623250   -1.380530023660    0.904790000000
 H    4.069087623250   -2.330750023660    0.000000000000
 H    5.292117623250   -1.380530023660   -0.904790000000
LI    1.228637623250   -0.000000023660    0.000000000000
 S   -3.671362376750   -0.000000023660    0.000000000000
 C   -4.811205876443   -1.413800122616    0.000000000000
 H   -5.431106847787   -1.380532660071    0.904786969437
 H   -4.208077094451   -2.330755832143    0.000000000000
 H   -5.431106847787   -1.380532660071   -0.904786969437
 C   -4.811205629688    1.413800274236    0.000000000000
 H   -5.431106606839    1.380532919884   -0.904786969437
 H   -4.208076687658    2.330755878497    0.000000000000
 H   -5.431106606839    1.380532919884    0.904786969437
