19

 H    5.339440863684    1.380529976340   -0.904790000000
 H    4.116410863684    2.330749976340    0.000000000000
 H    5.339440863684    1.380529976340    0.904790000000
 C    4.719540863684    1.413799976340    0.000000000000
 S    3.579690863684   -0.000000023660    0.000000000000
 C    4.719540863684   -1.413800023660    0.000000000000
 H    5.339440863684   -1.380530023660    0.904790000000
 H    4.116410863684   -2.330750023660    0.000000000000
 H    5.339440863684   -1.380530023660   -0.904790000000
LI    1.275960863684   -0.000000023660    0.000000000000
 S   -3.724039136316   -0.000000023660    0.000000000000
 C   -4.863882636009   -1.413800122616    0.000000000000
 H   -5.483783607354   -1.380532660071    0.904786969437
 H   -4.260753854018   -2.330755832143    0.000000000000
 H   -5.483783607354   -1.380532660071   -0.904786969437
 C   -4.863882389255    1.413800274236    0.000000000000
 H   -5.483783366405    1.380532919884   -0.904786969437
 H   -4.260753447224    2.330755878497    0.000000000000
 H   -5.483783366405    1.380532919884    0.904786969437
