19

 H    5.434087344550    1.380529976340   -0.904790000000
 H    4.211057344550    2.330749976340    0.000000000000
 H    5.434087344550    1.380529976340    0.904790000000
 C    4.814187344550    1.413799976340    0.000000000000
 S    3.674337344550   -0.000000023660    0.000000000000
 C    4.814187344550   -1.413800023660    0.000000000000
 H    5.434087344550   -1.380530023660    0.904790000000
 H    4.211057344550   -2.330750023660    0.000000000000
 H    5.434087344550   -1.380530023660   -0.904790000000
LI    1.370607344550   -0.000000023660    0.000000000000
 S   -3.829392655450   -0.000000023660    0.000000000000
 C   -4.969236155143   -1.413800122616    0.000000000000
 H   -5.589137126487   -1.380532660071    0.904786969437
 H   -4.366107373151   -2.330755832143    0.000000000000
 H   -5.589137126487   -1.380532660071   -0.904786969437
 C   -4.969235908388    1.413800274236    0.000000000000
 H   -5.589136885538    1.380532919884   -0.904786969437
 H   -4.366106966357    2.330755878497    0.000000000000
 H   -5.589136885538    1.380532919884    0.904786969437
