19

 H    5.718026787151    1.380529976340   -0.904790000000
 H    4.494996787151    2.330749976340    0.000000000000
 H    5.718026787151    1.380529976340    0.904790000000
 C    5.098126787151    1.413799976340    0.000000000000
 S    3.958276787151   -0.000000023660    0.000000000000
 C    5.098126787151   -1.413800023660    0.000000000000
 H    5.718026787151   -1.380530023660    0.904790000000
 H    4.494996787151   -2.330750023660    0.000000000000
 H    5.718026787151   -1.380530023660   -0.904790000000
LI    1.654546787151   -0.000000023660    0.000000000000
 S   -4.145453212849   -0.000000023660    0.000000000000
 C   -5.285296712542   -1.413800122616    0.000000000000
 H   -5.905197683886   -1.380532660071    0.904786969437
 H   -4.682167930550   -2.330755832143    0.000000000000
 H   -5.905197683886   -1.380532660071   -0.904786969437
 C   -5.285296465787    1.413800274236    0.000000000000
 H   -5.905197442938    1.380532919884   -0.904786969437
 H   -4.682167523757    2.330755878497    0.000000000000
 H   -5.905197442938    1.380532919884    0.904786969437
