19

 H    5.765350027584    1.380529976340   -0.904790000000
 H    4.542320027584    2.330749976340    0.000000000000
 H    5.765350027584    1.380529976340    0.904790000000
 C    5.145450027584    1.413799976340    0.000000000000
 S    4.005600027584   -0.000000023660    0.000000000000
 C    5.145450027584   -1.413800023660    0.000000000000
 H    5.765350027584   -1.380530023660    0.904790000000
 H    4.542320027584   -2.330750023660    0.000000000000
 H    5.765350027584   -1.380530023660   -0.904790000000
LI    1.701870027584   -0.000000023660    0.000000000000
 S   -4.198129972416   -0.000000023660    0.000000000000
 C   -5.337973472109   -1.413800122616    0.000000000000
 H   -5.957874443453   -1.380532660071    0.904786969437
 H   -4.734844690117   -2.330755832143    0.000000000000
 H   -5.957874443453   -1.380532660071   -0.904786969437
 C   -5.337973225354    1.413800274236    0.000000000000
 H   -5.957874202504    1.380532919884   -0.904786969437
 H   -4.734844283323    2.330755878497    0.000000000000
 H   -5.957874202504    1.380532919884    0.904786969437
