19

 H    5.812673268018    1.380529976340   -0.904790000000
 H    4.589643268018    2.330749976340    0.000000000000
 H    5.812673268018    1.380529976340    0.904790000000
 C    5.192773268018    1.413799976340    0.000000000000
 S    4.052923268018   -0.000000023660    0.000000000000
 C    5.192773268018   -1.413800023660    0.000000000000
 H    5.812673268018   -1.380530023660    0.904790000000
 H    4.589643268018   -2.330750023660    0.000000000000
 H    5.812673268018   -1.380530023660   -0.904790000000
LI    1.749193268018   -0.000000023660    0.000000000000
 S   -4.250806731982   -0.000000023660    0.000000000000
 C   -5.390650231675   -1.413800122616    0.000000000000
 H   -6.010551203019   -1.380532660071    0.904786969437
 H   -4.787521449684   -2.330755832143    0.000000000000
 H   -6.010551203019   -1.380532660071   -0.904786969437
 C   -5.390649984920    1.413800274236    0.000000000000
 H   -6.010550962071    1.380532919884   -0.904786969437
 H   -4.787521042890    2.330755878497    0.000000000000
 H   -6.010550962071    1.380532919884    0.904786969437
