19

 H    5.907319748885    1.380529976340   -0.904790000000
 H    4.684289748885    2.330749976340    0.000000000000
 H    5.907319748885    1.380529976340    0.904790000000
 C    5.287419748885    1.413799976340    0.000000000000
 S    4.147569748885   -0.000000023660    0.000000000000
 C    5.287419748885   -1.413800023660    0.000000000000
 H    5.907319748885   -1.380530023660    0.904790000000
 H    4.684289748885   -2.330750023660    0.000000000000
 H    5.907319748885   -1.380530023660   -0.904790000000
LI    1.843839748885   -0.000000023660    0.000000000000
 S   -4.356160251115   -0.000000023660    0.000000000000
 C   -5.496003750808   -1.413800122616    0.000000000000
 H   -6.115904722152   -1.380532660071    0.904786969437
 H   -4.892874968817   -2.330755832143    0.000000000000
 H   -6.115904722152   -1.380532660071   -0.904786969437
 C   -5.496003504054    1.413800274236    0.000000000000
 H   -6.115904481204    1.380532919884   -0.904786969437
 H   -4.892874562023    2.330755878497    0.000000000000
 H   -6.115904481204    1.380532919884    0.904786969437
