19

 H    6.049289470185    1.380529976340   -0.904790000000
 H    4.826259470185    2.330749976340    0.000000000000
 H    6.049289470185    1.380529976340    0.904790000000
 C    5.429389470185    1.413799976340    0.000000000000
 S    4.289539470185   -0.000000023660    0.000000000000
 C    5.429389470185   -1.413800023660    0.000000000000
 H    6.049289470185   -1.380530023660    0.904790000000
 H    4.826259470185   -2.330750023660    0.000000000000
 H    6.049289470185   -1.380530023660   -0.904790000000
LI    1.985809470185   -0.000000023660    0.000000000000
 S   -4.514190529815   -0.000000023660    0.000000000000
 C   -5.654034029508   -1.413800122616    0.000000000000
 H   -6.273935000852   -1.380532660071    0.904786969437
 H   -5.050905247516   -2.330755832143    0.000000000000
 H   -6.273935000852   -1.380532660071   -0.904786969437
 C   -5.654033782753    1.413800274236    0.000000000000
 H   -6.273934759904    1.380532919884   -0.904786969437
 H   -5.050904840723    2.330755878497    0.000000000000
 H   -6.273934759904    1.380532919884    0.904786969437
