19

 H    6.191259191485    1.380529976340   -0.904790000000
 H    4.968229191485    2.330749976340    0.000000000000
 H    6.191259191485    1.380529976340    0.904790000000
 C    5.571359191485    1.413799976340    0.000000000000
 S    4.431509191485   -0.000000023660    0.000000000000
 C    5.571359191485   -1.413800023660    0.000000000000
 H    6.191259191485   -1.380530023660    0.904790000000
 H    4.968229191485   -2.330750023660    0.000000000000
 H    6.191259191485   -1.380530023660   -0.904790000000
LI    2.127779191485   -0.000000023660    0.000000000000
 S   -4.672220808515   -0.000000023660    0.000000000000
 C   -5.812064308208   -1.413800122616    0.000000000000
 H   -6.431965279552   -1.380532660071    0.904786969437
 H   -5.208935526216   -2.330755832143    0.000000000000
 H   -6.431965279552   -1.380532660071   -0.904786969437
 C   -5.812064061453    1.413800274236    0.000000000000
 H   -6.431965038603    1.380532919884   -0.904786969437
 H   -5.208935119423    2.330755878497    0.000000000000
 H   -6.431965038603    1.380532919884    0.904786969437
