19

 H    6.427875393652    1.380529976340   -0.904790000000
 H    5.204845393652    2.330749976340    0.000000000000
 H    6.427875393652    1.380529976340    0.904790000000
 C    5.807975393652    1.413799976340    0.000000000000
 S    4.668125393652   -0.000000023660    0.000000000000
 C    5.807975393652   -1.413800023660    0.000000000000
 H    6.427875393652   -1.380530023660    0.904790000000
 H    5.204845393652   -2.330750023660    0.000000000000
 H    6.427875393652   -1.380530023660   -0.904790000000
LI    2.364395393652   -0.000000023660    0.000000000000
 S   -4.935604606348   -0.000000023660    0.000000000000
 C   -6.075448106041   -1.413800122616    0.000000000000
 H   -6.695349077385   -1.380532660071    0.904786969437
 H   -5.472319324049   -2.330755832143    0.000000000000
 H   -6.695349077385   -1.380532660071   -0.904786969437
 C   -6.075447859286    1.413800274236    0.000000000000
 H   -6.695348836436    1.380532919884   -0.904786969437
 H   -5.472318917255    2.330755878497    0.000000000000
 H   -6.695348836436    1.380532919884    0.904786969437
