19

 H    6.475198634086    1.380529976340   -0.904790000000
 H    5.252168634086    2.330749976340    0.000000000000
 H    6.475198634086    1.380529976340    0.904790000000
 C    5.855298634086    1.413799976340    0.000000000000
 S    4.715448634086   -0.000000023660    0.000000000000
 C    5.855298634086   -1.413800023660    0.000000000000
 H    6.475198634086   -1.380530023660    0.904790000000
 H    5.252168634086   -2.330750023660    0.000000000000
 H    6.475198634086   -1.380530023660   -0.904790000000
LI    2.411718634086   -0.000000023660    0.000000000000
 S   -4.988281365914   -0.000000023660    0.000000000000
 C   -6.128124865607   -1.413800122616    0.000000000000
 H   -6.748025836951   -1.380532660071    0.904786969437
 H   -5.524996083616   -2.330755832143    0.000000000000
 H   -6.748025836951   -1.380532660071   -0.904786969437
 C   -6.128124618853    1.413800274236    0.000000000000
 H   -6.748025596003    1.380532919884   -0.904786969437
 H   -5.524995676822    2.330755878497    0.000000000000
 H   -6.748025596003    1.380532919884    0.904786969437
