19

 H    6.522521874519    1.380529976340   -0.904790000000
 H    5.299491874519    2.330749976340    0.000000000000
 H    6.522521874519    1.380529976340    0.904790000000
 C    5.902621874519    1.413799976340    0.000000000000
 S    4.762771874519   -0.000000023660    0.000000000000
 C    5.902621874519   -1.413800023660    0.000000000000
 H    6.522521874519   -1.380530023660    0.904790000000
 H    5.299491874519   -2.330750023660    0.000000000000
 H    6.522521874519   -1.380530023660   -0.904790000000
LI    2.459041874519   -0.000000023660    0.000000000000
 S   -5.040958125481   -0.000000023660    0.000000000000
 C   -6.180801625174   -1.413800122616    0.000000000000
 H   -6.800702596518   -1.380532660071    0.904786969437
 H   -5.577672843182   -2.330755832143    0.000000000000
 H   -6.800702596518   -1.380532660071   -0.904786969437
 C   -6.180801378419    1.413800274236    0.000000000000
 H   -6.800702355570    1.380532919884   -0.904786969437
 H   -5.577672436389    2.330755878497    0.000000000000
 H   -6.800702355570    1.380532919884    0.904786969437
