19

 H    6.664491595819    1.380529976340   -0.904790000000
 H    5.441461595819    2.330749976340    0.000000000000
 H    6.664491595819    1.380529976340    0.904790000000
 C    6.044591595819    1.413799976340    0.000000000000
 S    4.904741595819   -0.000000023660    0.000000000000
 C    6.044591595819   -1.413800023660    0.000000000000
 H    6.664491595819   -1.380530023660    0.904790000000
 H    5.441461595819   -2.330750023660    0.000000000000
 H    6.664491595819   -1.380530023660   -0.904790000000
LI    2.601011595819   -0.000000023660    0.000000000000
 S   -5.198988404181   -0.000000023660    0.000000000000
 C   -6.338831903874   -1.413800122616    0.000000000000
 H   -6.958732875218   -1.380532660071    0.904786969437
 H   -5.735703121882   -2.330755832143    0.000000000000
 H   -6.958732875218   -1.380532660071   -0.904786969437
 C   -6.338831657119    1.413800274236    0.000000000000
 H   -6.958732634269    1.380532919884   -0.904786969437
 H   -5.735702715088    2.330755878497    0.000000000000
 H   -6.958732634269    1.380532919884    0.904786969437
