19

 H    6.711814836253    1.380529976340   -0.904790000000
 H    5.488784836253    2.330749976340    0.000000000000
 H    6.711814836253    1.380529976340    0.904790000000
 C    6.091914836253    1.413799976340    0.000000000000
 S    4.952064836253   -0.000000023660    0.000000000000
 C    6.091914836253   -1.413800023660    0.000000000000
 H    6.711814836253   -1.380530023660    0.904790000000
 H    5.488784836253   -2.330750023660    0.000000000000
 H    6.711814836253   -1.380530023660   -0.904790000000
LI    2.648334836253   -0.000000023660    0.000000000000
 S   -5.251665163747   -0.000000023660    0.000000000000
 C   -6.391508663440   -1.413800122616    0.000000000000
 H   -7.011409634784   -1.380532660071    0.904786969437
 H   -5.788379881448   -2.330755832143    0.000000000000
 H   -7.011409634784   -1.380532660071   -0.904786969437
 C   -6.391508416685    1.413800274236    0.000000000000
 H   -7.011409393836    1.380532919884   -0.904786969437
 H   -5.788379474655    2.330755878497    0.000000000000
 H   -7.011409393836    1.380532919884    0.904786969437
