19

 H    6.806461317120    1.380529976340   -0.904790000000
 H    5.583431317120    2.330749976340    0.000000000000
 H    6.806461317120    1.380529976340    0.904790000000
 C    6.186561317120    1.413799976340    0.000000000000
 S    5.046711317120   -0.000000023660    0.000000000000
 C    6.186561317120   -1.413800023660    0.000000000000
 H    6.806461317120   -1.380530023660    0.904790000000
 H    5.583431317120   -2.330750023660    0.000000000000
 H    6.806461317120   -1.380530023660   -0.904790000000
LI    2.742981317120   -0.000000023660    0.000000000000
 S   -5.357018682880   -0.000000023660    0.000000000000
 C   -6.496862182573   -1.413800122616    0.000000000000
 H   -7.116763153917   -1.380532660071    0.904786969437
 H   -5.893733400582   -2.330755832143    0.000000000000
 H   -7.116763153917   -1.380532660071   -0.904786969437
 C   -6.496861935819    1.413800274236    0.000000000000
 H   -7.116762912969    1.380532919884   -0.904786969437
 H   -5.893732993788    2.330755878497    0.000000000000
 H   -7.116762912969    1.380532919884    0.904786969437
