19

 H    7.043077519287    1.380529976340   -0.904790000000
 H    5.820047519287    2.330749976340    0.000000000000
 H    7.043077519287    1.380529976340    0.904790000000
 C    6.423177519287    1.413799976340    0.000000000000
 S    5.283327519287   -0.000000023660    0.000000000000
 C    6.423177519287   -1.413800023660    0.000000000000
 H    7.043077519287   -1.380530023660    0.904790000000
 H    5.820047519287   -2.330750023660    0.000000000000
 H    7.043077519287   -1.380530023660   -0.904790000000
LI    2.979597519287   -0.000000023660    0.000000000000
 S   -5.620402480713   -0.000000023660    0.000000000000
 C   -6.760245980406   -1.413800122616    0.000000000000
 H   -7.380146951750   -1.380532660071    0.904786969437
 H   -6.157117198415   -2.330755832143    0.000000000000
 H   -7.380146951750   -1.380532660071   -0.904786969437
 C   -6.760245733651    1.413800274236    0.000000000000
 H   -7.380146710802    1.380532919884   -0.904786969437
 H   -6.157116791621    2.330755878497    0.000000000000
 H   -7.380146710802    1.380532919884    0.904786969437
