19

 H    7.137724000154    1.380529976340   -0.904790000000
 H    5.914694000154    2.330749976340    0.000000000000
 H    7.137724000154    1.380529976340    0.904790000000
 C    6.517824000154    1.413799976340    0.000000000000
 S    5.377974000154   -0.000000023660    0.000000000000
 C    6.517824000154   -1.413800023660    0.000000000000
 H    7.137724000154   -1.380530023660    0.904790000000
 H    5.914694000154   -2.330750023660    0.000000000000
 H    7.137724000154   -1.380530023660   -0.904790000000
LI    3.074244000154   -0.000000023660    0.000000000000
 S   -5.725755999846   -0.000000023660    0.000000000000
 C   -6.865599499539   -1.413800122616    0.000000000000
 H   -7.485500470883   -1.380532660071    0.904786969437
 H   -6.262470717548   -2.330755832143    0.000000000000
 H   -7.485500470883   -1.380532660071   -0.904786969437
 C   -6.865599252785    1.413800274236    0.000000000000
 H   -7.485500229935    1.380532919884   -0.904786969437
 H   -6.262470310754    2.330755878497    0.000000000000
 H   -7.485500229935    1.380532919884    0.904786969437
