19

 H    7.279693721454    1.380529976340   -0.904790000000
 H    6.056663721454    2.330749976340    0.000000000000
 H    7.279693721454    1.380529976340    0.904790000000
 C    6.659793721454    1.413799976340    0.000000000000
 S    5.519943721454   -0.000000023660    0.000000000000
 C    6.659793721454   -1.413800023660    0.000000000000
 H    7.279693721454   -1.380530023660    0.904790000000
 H    6.056663721454   -2.330750023660    0.000000000000
 H    7.279693721454   -1.380530023660   -0.904790000000
LI    3.216213721454   -0.000000023660    0.000000000000
 S   -5.883786278546   -0.000000023660    0.000000000000
 C   -7.023629778239   -1.413800122616    0.000000000000
 H   -7.643530749583   -1.380532660071    0.904786969437
 H   -6.420500996247   -2.330755832143    0.000000000000
 H   -7.643530749583   -1.380532660071   -0.904786969437
 C   -7.023629531484    1.413800274236    0.000000000000
 H   -7.643530508635    1.380532919884   -0.904786969437
 H   -6.420500589454    2.330755878497    0.000000000000
 H   -7.643530508635    1.380532919884    0.904786969437
