19

 H    7.468986683188    1.380529976340   -0.904790000000
 H    6.245956683188    2.330749976340    0.000000000000
 H    7.468986683188    1.380529976340    0.904790000000
 C    6.849086683188    1.413799976340    0.000000000000
 S    5.709236683188   -0.000000023660    0.000000000000
 C    6.849086683188   -1.413800023660    0.000000000000
 H    7.468986683188   -1.380530023660    0.904790000000
 H    6.245956683188   -2.330750023660    0.000000000000
 H    7.468986683188   -1.380530023660   -0.904790000000
LI    3.405506683188   -0.000000023660    0.000000000000
 S   -6.094493316812   -0.000000023660    0.000000000000
 C   -7.234336816505   -1.413800122616    0.000000000000
 H   -7.854237787849   -1.380532660071    0.904786969437
 H   -6.631208034514   -2.330755832143    0.000000000000
 H   -7.854237787849   -1.380532660071   -0.904786969437
 C   -7.234336569751    1.413800274236    0.000000000000
 H   -7.854237546901    1.380532919884   -0.904786969437
 H   -6.631207627720    2.330755878497    0.000000000000
 H   -7.854237546901    1.380532919884    0.904786969437
