14

 N    1.397502041963    0.995078565304    0.055432462026
 C    0.312055099060    1.817837535132    0.058574333247
 H    0.503575938942    2.892894507631    0.056069734705
 C    1.315638321281   -0.424191896422    0.056450130910
 O    2.359381568599   -1.077433786483    0.053969289598
 N    0.041800232600   -0.966331528015    0.067063365040
 C   -1.015885880213   -0.164979497140    0.064570320212
 N   -2.247878996669   -0.768778526220    0.019164497003
 H   -2.256813464990   -1.768472412731    0.188735105568
 H   -3.066456740872   -0.242350206820    0.294064621800
 C   -0.947303881779    1.276397342055    0.061086886546
 H   -1.835827597464    1.907714933299    0.051604932519
 H    2.341442164890    1.369726777746    0.052126565798
LI   -2.571514341150   -0.948780407905   -0.909737804852
