14

 N    1.401348629835    0.997217988784    0.066472987697
 C    0.315901686932    1.819976958612    0.069614858918
 H    0.507422526814    2.895033931111    0.067110260376
 C    1.319484909153   -0.422052472942    0.067490656581
 O    2.363228156471   -1.075294363003    0.065009815269
 N    0.045646820472   -0.964192104535    0.078103890711
 C   -1.012039292341   -0.162840073660    0.075610845883
 N   -2.244032408797   -0.766639102740    0.030205022674
 H   -2.252966877118   -1.766332989251    0.199775631239
 H   -3.062610153000   -0.240210783340    0.305105147471
 C   -0.943457293907    1.278536765535    0.072127412217
 H   -1.831981009592    1.909854356779    0.062645458190
 H    2.345288752762    1.371866201226    0.063167091469
LI   -2.632394822174   -0.982641360761   -1.084477739553
