14

 N    1.403271923771    0.998287700524    0.071993250532
 C    0.317824980868    1.821046670352    0.075135121753
 H    0.509345820750    2.896103642851    0.072630523211
 C    1.321408203089   -0.420982761202    0.073010919416
 O    2.365151450407   -1.074224651263    0.070530078104
 N    0.047570114408   -0.963122392795    0.083624153546
 C   -1.010115998405   -0.161770361920    0.081131108718
 N   -2.242109114861   -0.765569391000    0.035725285509
 H   -2.251043583182   -1.765263277511    0.205295894074
 H   -3.060686859064   -0.239141071600    0.310625410306
 C   -0.941533999971    1.279606477275    0.077647675052
 H   -1.830057715656    1.910924068519    0.068165721025
 H    2.347212046698    1.372935912966    0.068687354304
LI   -2.662835062686   -0.999571837190   -1.171847706903
