14

 N    1.405195217707    0.999357412264    0.077513513367
 C    0.319748274804    1.822116382092    0.080655384588
 H    0.511269114686    2.897173354591    0.078150786046
 C    1.323331497025   -0.419913049462    0.078531182251
 O    2.367074744343   -1.073154939523    0.076050340939
 N    0.049493408344   -0.962052681055    0.089144416381
 C   -1.008192704469   -0.160700650180    0.086651371553
 N   -2.240185820925   -0.764499679260    0.041245548344
 H   -2.249120289246   -1.764193565771    0.210816156909
 H   -3.058763565128   -0.238071359860    0.316145673141
 C   -0.939610706035    1.280676189015    0.083167937887
 H   -1.828134421720    1.911993780259    0.073685983860
 H    2.349135340634    1.374005624706    0.074207617139
LI   -2.693275303199   -1.016502313618   -1.259217674254
