14

 N    1.414811687387    1.004705970965    0.105114827543
 C    0.329364744484    1.827464940793    0.108256698764
 H    0.520885584366    2.902521913292    0.105752100222
 C    1.332947966705   -0.414564490761    0.106132496427
 O    2.376691214023   -1.067806380822    0.103651655115
 N    0.059109878024   -0.956704122354    0.116745730557
 C   -0.998576234789   -0.155352091479    0.114252685729
 N   -2.230569351245   -0.759151120559    0.068846862520
 H   -2.239503819566   -1.758845007070    0.238417471085
 H   -3.049147095448   -0.232722801159    0.343746987317
 C   -0.929994236355    1.286024747716    0.110769252063
 H   -1.818517952040    1.917342338960    0.101287298036
 H    2.358751810314    1.379354183407    0.101808931315
LI   -2.845476505759   -1.101154695760   -1.696067511005
