14

 N    1.416734981323    1.005775682705    0.110635090379
 C    0.331288038420    1.828534652533    0.113776961600
 H    0.522808878302    2.903591625032    0.111272363058
 C    1.334871260641   -0.413494779021    0.111652759263
 O    2.378614507959   -1.066736669082    0.109171917951
 N    0.061033171960   -0.955634410614    0.122265993393
 C   -0.996652940853   -0.154282379739    0.119772948565
 N   -2.228646057309   -0.758081408819    0.074367125356
 H   -2.237580525630   -1.757775295330    0.243937733921
 H   -3.047223801512   -0.231653089419    0.349267250153
 C   -0.928070942419    1.287094459456    0.116289514899
 H   -1.816594658104    1.918412050700    0.106807560872
 H    2.360675104250    1.380423895147    0.107329194151
LI   -2.875916746271   -1.118085172188   -1.783437478356
