14

 N    1.428274744939    1.012193953146    0.143756667390
 C    0.342827802036    1.834952922974    0.146898538611
 H    0.534348641918    2.910009895473    0.144393940069
 C    1.346411024257   -0.407076508580    0.144774336274
 O    2.390154271575   -1.060318398641    0.142293494962
 N    0.072572935576   -0.949216140173    0.155387570404
 C   -0.985113177237   -0.147864109298    0.152894525576
 N   -2.217106293693   -0.751663138378    0.107488702367
 H   -2.226040762014   -1.751357024889    0.277059310932
 H   -3.035684037896   -0.225234818978    0.382388827164
 C   -0.916531178803    1.293512729897    0.149411091910
 H   -1.805054894488    1.924830321141    0.139929137883
 H    2.372214867866    1.386842165588    0.140450771162
LI   -3.058558189343   -1.219668030758   -2.307657282458
