14

 N    1.432121332811    1.014333376626    0.154797193061
 C    0.346674389908    1.837092346454    0.157939064282
 H    0.538195229790    2.912149318953    0.155434465740
 C    1.350257612129   -0.404937085100    0.155814861945
 O    2.394000859447   -1.058178975161    0.153334020633
 N    0.076419523448   -0.947076716693    0.166428096075
 C   -0.981266589365   -0.145724685818    0.163935051247
 N   -2.213259705821   -0.749523714898    0.118529228038
 H   -2.222194174142   -1.749217601409    0.288099836603
 H   -3.031837450024   -0.223095395498    0.393429352835
 C   -0.912684590931    1.295652153377    0.160451617581
 H   -1.801208306616    1.926969744621    0.150969663554
 H    2.376061455738    1.388981589068    0.151491296833
LI   -3.119438670368   -1.253528983614   -2.482397217158
