14

 N    1.435967920683    1.016472800107    0.165837718731
 C    0.350520977780    1.839231769935    0.168979589952
 H    0.542041817662    2.914288742434    0.166474991410
 C    1.354104200001   -0.402797661619    0.166855387615
 O    2.397847447319   -1.056039551680    0.164374546303
 N    0.080266111320   -0.944937293212    0.177468621745
 C   -0.977420001493   -0.143585262337    0.174975576917
 N   -2.209413117949   -0.747384291417    0.129569753708
 H   -2.218347586270   -1.747078177928    0.299140362273
 H   -3.027990862152   -0.220955972017    0.404469878505
 C   -0.908838003059    1.297791576858    0.171492143251
 H   -1.797361718744    1.929109168102    0.162010189224
 H    2.379908043610    1.391121012549    0.162531822503
LI   -3.180319151392   -1.287389936471   -2.657137151859
