14

 N    1.441737802491    1.019681935327    0.182398507237
 C    0.356290859588    1.842440905155    0.185540378458
 H    0.547811699470    2.917497877654    0.183035779916
 C    1.359874081809   -0.399588526399    0.183416176121
 O    2.403617329127   -1.052830416460    0.180935334809
 N    0.086035993128   -0.941728157992    0.194029410251
 C   -0.971650119685   -0.140376127117    0.191536365423
 N   -2.203643236141   -0.744175156197    0.146130542214
 H   -2.212577704462   -1.743869042708    0.315701150779
 H   -3.022220980344   -0.217746836797    0.421030667011
 C   -0.903068121251    1.301000712078    0.188052931757
 H   -1.791591836936    1.932318303322    0.178570977730
 H    2.385677925418    1.394330147769    0.179092611009
LI   -3.271639872928   -1.338181365756   -2.919247053910
