14

 N    1.447507684299    1.022891070547    0.198959295743
 C    0.362060741396    1.845650040375    0.202101166964
 H    0.553581581278    2.920707012874    0.199596568422
 C    1.365643963617   -0.396379391179    0.199976964627
 O    2.409387210935   -1.049621281240    0.197496123315
 N    0.091805874936   -0.938519022772    0.210590198757
 C   -0.965880237877   -0.137166991897    0.208097153929
 N   -2.197873354333   -0.740966020977    0.162691330720
 H   -2.206807822654   -1.740659907488    0.332261939285
 H   -3.016451098536   -0.214537701577    0.437591455517
 C   -0.897298239443    1.304209847298    0.204613720263
 H   -1.785821955128    1.935527438542    0.195131766236
 H    2.391447807226    1.397539282989    0.195653399515
LI   -3.362960594464   -1.388972795041   -3.181356955961
