14

 N    1.449430978235    1.023960782288    0.204479558578
 C    0.363984035332    1.846719752116    0.207621429799
 H    0.555504875214    2.921776724615    0.205116831257
 C    1.367567257553   -0.395309679438    0.205497227462
 O    2.411310504871   -1.048551569499    0.203016386150
 N    0.093729168872   -0.937449311031    0.216110461592
 C   -0.963956943941   -0.136097280156    0.213617416764
 N   -2.195950060397   -0.739896309236    0.168211593555
 H   -2.204884528718   -1.739590195747    0.337782202120
 H   -3.014527804600   -0.213467989836    0.443111718352
 C   -0.895374945507    1.305279559039    0.210133983098
 H   -1.783898661192    1.936597150283    0.200652029071
 H    2.393371101162    1.398608994730    0.201173662350
LI   -3.393400834976   -1.405903271469   -3.268726923311
