14

 N    1.453277566107    1.026100205768    0.215520084248
 C    0.367830623204    1.848859175596    0.218661955469
 H    0.559351463086    2.923916148095    0.216157356927
 C    1.371413845425   -0.393170255958    0.216537753132
 O    2.415157092743   -1.046412146019    0.214056911820
 N    0.097575756744   -0.935309887551    0.227150987262
 C   -0.960110356069   -0.133957856676    0.224657942434
 N   -2.192103472525   -0.737756885756    0.179252119225
 H   -2.201037940846   -1.737450772267    0.348822727790
 H   -3.010681216728   -0.211328566356    0.454152244022
 C   -0.891528357635    1.307418982519    0.221174508768
 H   -1.780052073320    1.938736573763    0.211692554741
 H    2.397217689034    1.400748418210    0.212214188020
LI   -3.454281316000   -1.439764224326   -3.443466858012
