14

 N    1.459047447915    1.029309340988    0.232080872754
 C    0.373600505012    1.852068310816    0.235222743975
 H    0.565121344894    2.927125283315    0.232718145433
 C    1.377183727233   -0.389961120738    0.233098541638
 O    2.420926974551   -1.043203010799    0.230617700326
 N    0.103345638552   -0.932100752331    0.243711775768
 C   -0.954340474261   -0.130748721456    0.241218730940
 N   -2.186333590717   -0.734547750536    0.195812907731
 H   -2.195268059038   -1.734241637047    0.365383516296
 H   -3.004911334920   -0.208119431136    0.470713032528
 C   -0.885758475827    1.310628117739    0.237735297274
 H   -1.774282191512    1.941945708983    0.228253343247
 H    2.402987570842    1.403957553430    0.228774976526
LI   -3.545602037537   -1.490555653611   -3.705576760063
