14

 N    1.485973563019    1.044285305350    0.309364552447
 C    0.400526620116    1.867044275178    0.312506423668
 H    0.592047459998    2.942101247677    0.310001825126
 C    1.404109842337   -0.374985156376    0.310382221331
 O    2.447853089655   -1.028227046437    0.307901380019
 N    0.130271753656   -0.917124787969    0.320995455461
 C   -0.927414359157   -0.115772757094    0.318502410633
 N   -2.159407475613   -0.719571786174    0.273096587424
 H   -2.168341943934   -1.719265672685    0.442667195989
 H   -2.977985219816   -0.193143466774    0.547996712221
 C   -0.858832360723    1.325604082101    0.315018976967
 H   -1.747356076408    1.956921673345    0.305537022940
 H    2.429913685946    1.418933517792    0.306058656219
LI   -3.971765404706   -1.727582323607   -4.928756302967
