14

 N    1.489820150891    1.046424728831    0.320405078118
 C    0.404373207988    1.869183698659    0.323546949339
 H    0.595894047870    2.944240671158    0.321042350797
 C    1.407956430209   -0.372845732895    0.321422747002
 O    2.451699677527   -1.026087622956    0.318941905690
 N    0.134118341528   -0.914985364488    0.332035981132
 C   -0.923567771285   -0.113633333613    0.329542936304
 N   -2.155560887741   -0.717432362693    0.284137113095
 H   -2.164495356062   -1.717126249204    0.453707721660
 H   -2.974138631944   -0.191004043293    0.559037237892
 C   -0.854985772851    1.327743505582    0.326059502638
 H   -1.743509488536    1.959061096826    0.316577548611
 H    2.433760273818    1.421072941273    0.317099181890
LI   -4.032645885730   -1.761443276464   -5.103496237668
