14

 N    1.491743444827    1.047494440571    0.325925340953
 C    0.406296501924    1.870253410399    0.329067212174
 H    0.597817341806    2.945310382898    0.326562613632
 C    1.409879724145   -0.371776021155    0.326943009837
 O    2.453622971463   -1.025017911216    0.324462168525
 N    0.136041635464   -0.913915652748    0.337556243967
 C   -0.921644477349   -0.112563621873    0.335063199139
 N   -2.153637593805   -0.716362650953    0.289657375930
 H   -2.162572062126   -1.716056537464    0.459227984495
 H   -2.972215338008   -0.189934331553    0.564557500727
 C   -0.853062478915    1.328813217322    0.331579765473
 H   -1.741586194600    1.960130808566    0.322097811446
 H    2.435683567754    1.422142653013    0.322619444725
LI   -4.063086126242   -1.778373752892   -5.190866205018
