14

 N    1.495590032699    1.049633864051    0.336965866624
 C    0.410143089796    1.872392833879    0.340107737845
 H    0.601663929678    2.947449806378    0.337603139303
 C    1.413726312017   -0.369636597675    0.337983535508
 O    2.457469559335   -1.022878487736    0.335502694196
 N    0.139888223336   -0.911776229268    0.348596769638
 C   -0.917797889477   -0.110424198393    0.346103724810
 N   -2.149791005933   -0.714223227473    0.300697901601
 H   -2.158725474254   -1.713917113984    0.470268510166
 H   -2.968368750136   -0.187794908073    0.575598026398
 C   -0.849215891043    1.330952640802    0.342620291144
 H   -1.737739606728    1.962270232046    0.333138337117
 H    2.439530155626    1.424282076493    0.333659970396
LI   -4.123966607266   -1.812234705749   -5.365606139719
