14

 N    1.510976384187    1.058191557972    0.381127969306
 C    0.425529441284    1.880950527800    0.384269840527
 H    0.617050281166    2.956007500299    0.381765241985
 C    1.429112663505   -0.361078903754    0.382145638190
 O    2.472855910823   -1.014320793815    0.379664796878
 N    0.155274574824   -0.903218535347    0.392758872320
 C   -0.902411537989   -0.101866504472    0.390265827492
 N   -2.134404654445   -0.705665533552    0.344860004283
 H   -2.143339122766   -1.705359420063    0.514430612848
 H   -2.952982398648   -0.179237214152    0.619760129080
 C   -0.833829539555    1.339510334723    0.386782393826
 H   -1.722353255240    1.970827925967    0.377300439799
 H    2.454916507114    1.432839770414    0.377822073078
LI   -4.367488531362   -1.947678517175   -6.064565878522
