14

 N    1.514822972059    1.060330981452    0.392168494976
 C    0.429376029156    1.883089951280    0.395310366197
 H    0.620896869038    2.958146923779    0.392805767655
 C    1.432959251377   -0.358939480274    0.393186163860
 O    2.476702498695   -1.012181370335    0.390705322548
 N    0.159121162696   -0.901079111867    0.403799397990
 C   -0.898564950117   -0.099727080992    0.401306353162
 N   -2.130558066573   -0.703526110072    0.355900529953
 H   -2.139492534894   -1.703219996583    0.525471138518
 H   -2.949135810776   -0.177097790672    0.630800654750
 C   -0.829982951683    1.341649758203    0.397822919496
 H   -1.718506667368    1.972967349447    0.388340965469
 H    2.458763094986    1.434979193894    0.388862598748
LI   -4.428369012387   -1.981539470032   -6.239305813222
