14

 N    1.516746265995    1.061400693192    0.397688757811
 C    0.431299323092    1.884159663020    0.400830629032
 H    0.622820162974    2.959216635519    0.398326030490
 C    1.434882545313   -0.357869768534    0.398706426695
 O    2.478625792631   -1.011111658595    0.396225585383
 N    0.161044456632   -0.900009400127    0.409319660825
 C   -0.896641656181   -0.098657369252    0.406826615997
 N   -2.128634772637   -0.702456398332    0.361420792788
 H   -2.137569240958   -1.702150284843    0.530991401353
 H   -2.947212516840   -0.176028078932    0.636320917585
 C   -0.828059657747    1.342719469943    0.403343182331
 H   -1.716583373432    1.974037061187    0.393861228304
 H    2.460686388922    1.436048905634    0.394382861583
LI   -4.458809252899   -1.998469946460   -6.326675780573
