14

 N    1.524439441740    1.065679540153    0.419769809152
 C    0.438992498837    1.888438509981    0.422911680373
 H    0.630513338719    2.963495482480    0.420407081831
 C    1.442575721058   -0.353590921573    0.420787478036
 O    2.486318968376   -1.006832811634    0.418306636724
 N    0.168737632377   -0.895730553166    0.431400712166
 C   -0.888948480436   -0.094378522291    0.428907667338
 N   -2.120941596892   -0.698177551371    0.383501844129
 H   -2.129876065213   -1.697871437882    0.553072452694
 H   -2.939519341095   -0.171749231971    0.658401968926
 C   -0.820366482002    1.346998316904    0.425424233672
 H   -1.708890197687    1.978315908148    0.415942279645
 H    2.468379564667    1.440327752595    0.416463912924
LI   -4.580570214947   -2.066191852174   -6.676155649974
