14

 N    1.535979205356    1.072097810594    0.452891386164
 C    0.450532262453    1.894856780422    0.456033257385
 H    0.642053102335    2.969913752921    0.453528658843
 C    1.454115484674   -0.347172651132    0.453909055048
 O    2.497858731992   -1.000414541193    0.451428213736
 N    0.180277395993   -0.889312282725    0.464522289178
 C   -0.877408716820   -0.087960251850    0.462029244350
 N   -2.109401833276   -0.691759280930    0.416623421141
 H   -2.118336301597   -1.691453167441    0.586194029706
 H   -2.927979577479   -0.165330961530    0.691523545938
 C   -0.808826718386    1.353416587345    0.458545810684
 H   -1.697350434071    1.984734178589    0.449063856657
 H    2.479919328283    1.446746023036    0.449585489936
LI   -4.763211658019   -2.167774710744   -7.200375454076
