14

 N    1.539825793228    1.074237234074    0.463931911834
 C    0.454378850325    1.896996203902    0.467073783055
 H    0.645899690207    2.972053176401    0.464569184513
 C    1.457962072546   -0.345033227652    0.464949580718
 O    2.501705319864   -0.998275117713    0.462468739406
 N    0.184123983865   -0.887172859245    0.475562814848
 C   -0.873562128948   -0.085820828370    0.473069770020
 N   -2.105555245404   -0.689619857450    0.427663946811
 H   -2.114489713725   -1.689313743961    0.597234555376
 H   -2.924132989607   -0.163191538050    0.702564071608
 C   -0.804980130514    1.355556010825    0.469586336354
 H   -1.693503846199    1.986873602069    0.460104382327
 H    2.483765916155    1.448885446516    0.460626015606
LI   -4.824092139044   -2.201635663600   -7.375115388777
