14

 N    1.551365556844    1.080655504515    0.497053488846
 C    0.465918613941    1.903414474343    0.500195360067
 H    0.657439453823    2.978471446842    0.497690761525
 C    1.469501836162   -0.338614957211    0.498071157730
 O    2.513245083480   -0.991856847272    0.495590316418
 N    0.195663747481   -0.880754588804    0.508684391860
 C   -0.862022365332   -0.079402557929    0.506191347032
 N   -2.094015481788   -0.683201587009    0.460785523823
 H   -2.102949950109   -1.682895473520    0.630356132388
 H   -2.912593225991   -0.156773267609    0.735685648620
 C   -0.793440366898    1.361974281266    0.502707913366
 H   -1.681964082583    1.993291872510    0.493225959339
 H    2.495305679771    1.455303716957    0.493747592618
LI   -5.006733582116   -2.303218522170   -7.899335192879
