14

 N    1.557135438652    1.083864639735    0.513614277351
 C    0.471688495749    1.906623609563    0.516756148572
 H    0.663209335631    2.981680582062    0.514251550030
 C    1.475271717970   -0.335405821991    0.514631946235
 O    2.519014965288   -0.988647712052    0.512151104923
 N    0.201433629289   -0.877545453584    0.525245180365
 C   -0.856252483524   -0.076193422709    0.522752135537
 N   -2.088245599980   -0.679992451789    0.477346312328
 H   -2.097180068301   -1.679686338300    0.646916920893
 H   -2.906823344183   -0.153564132389    0.752246437125
 C   -0.787670485090    1.365183416486    0.519268701871
 H   -1.676194200775    1.996501007730    0.509786747844
 H    2.501075561579    1.458512852177    0.510308381123
LI   -5.098054303652   -2.354009951455   -8.161445094930
