14

 N    1.560982026524    1.086004063216    0.524654803022
 C    0.475535083621    1.908763033044    0.527796674243
 H    0.667055923503    2.983820005543    0.525292075701
 C    1.479118305842   -0.333266398510    0.525672471906
 O    2.522861553160   -0.986508288571    0.523191630594
 N    0.205280217161   -0.875406030103    0.536285706036
 C   -0.852405895652   -0.074053999228    0.533792661208
 N   -2.084399012108   -0.677853028308    0.488386837999
 H   -2.093333480429   -1.677546914819    0.657957446564
 H   -2.902976756311   -0.151424708908    0.763286962796
 C   -0.783823897218    1.367322839967    0.530309227542
 H   -1.672347612903    1.998640431211    0.520827273515
 H    2.504922149451    1.460652275658    0.521348906794
LI   -5.158934784676   -2.387870904312   -8.336185029630
