14

 N    1.568675202268    1.090282910176    0.546735854363
 C    0.483228259365    1.913041880004    0.549877725584
 H    0.674749099247    2.988098852503    0.547373127042
 C    1.486811481586   -0.328987551550    0.547753523247
 O    2.530554728904   -0.982229441611    0.545272681935
 N    0.212973392905   -0.871127183143    0.558366757377
 C   -0.844712719908   -0.069775152268    0.555873712549
 N   -2.076705836364   -0.673574181348    0.510467889340
 H   -2.085640304685   -1.673268067859    0.680038497905
 H   -2.895283580567   -0.147145861948    0.785368014137
 C   -0.776130721474    1.371601686927    0.552390278883
 H   -1.664654437159    2.002919278171    0.542908324856
 H    2.512615325195    1.464931122618    0.543429958135
LI   -5.280695746725   -2.455592810025   -8.685664899031
