25

 N    2.791797591545    3.090034370131   -0.035153057407
 C    3.985037591545    3.801084370131   -0.023263057407
 H    3.881177591545    4.885674370131   -0.054253057407
 C    2.733297591545    1.721474370131    0.000856942593
 O    1.655107591545    1.096364370131   -0.005133057407
 N    3.950197591545    1.103374370131    0.044246942593
 H    3.943497591545    0.086214370131    0.071286942593
 C    5.240417591545    1.710584370131    0.062836942593
 O    6.237997591545    1.004184370131    0.107256942593
 C    5.188747591545    3.169824370131    0.024156942593
 H    6.123497591545    3.727074370131    0.034276942593
 H    1.902537591545    3.574724370131   -0.068473057407
 K   -0.362022408455   -0.239835629869    0.000606942593
 O   -1.529168706613   -1.012984055404    0.003928205849
 C   -2.607358257901   -1.638092066405   -0.002061967394
 N   -2.665786941688   -3.006749505704    0.030458593215
 H   -1.776469624838   -3.491506852216    0.061157898612
 C   -3.859031462864   -3.717782666859    0.018516950906
 H   -3.755107324688   -4.802445685626    0.046518903065
 C   -5.062818159873   -3.086417418804   -0.025413813383
 H   -5.997576000790   -3.643661855282   -0.035577811571
 C   -5.114570691032   -1.627078980588   -0.060196670704
 O   -6.112223631241   -0.920592549972   -0.101256625009
 N   -3.824325584166   -1.019908393997   -0.041981731582
 H   -3.817683870098   -0.002682369776   -0.066369328485
