25

 N    2.827305167856    3.113557867034   -0.035211276749
 C    4.020545167856    3.824607867034   -0.023321276749
 H    3.916685167856    4.909197867034   -0.054311276749
 C    2.768805167856    1.744997867034    0.000798723251
 O    1.690615167856    1.119887867034   -0.005191276749
 N    3.985705167856    1.126897867034    0.044188723251
 H    3.979005167856    0.109737867034    0.071228723251
 C    5.275925167856    1.734107867034    0.062778723251
 O    6.273505167856    1.027707867034    0.107198723251
 C    5.224255167856    3.193347867034    0.024098723251
 H    6.159005167856    3.750597867034    0.034218723251
 H    1.938045167856    3.598247867034   -0.068531276749
 K   -0.326514832144   -0.216312132966    0.000548723251
 O   -1.577028723028   -1.044685446039    0.004107219597
 C   -2.655218274316   -1.669793457040   -0.001882953646
 N   -2.713654031354   -3.038442102461    0.030993052610
 H   -1.824342191980   -3.523192554119    0.061958749233
 C   -3.906897761191   -3.749476677567    0.019056528520
 H   -3.802979574562   -4.834132352675    0.047363365952
 C   -5.110676714228   -3.118121394267   -0.025228219111
 H   -6.045433810652   -3.675367153881   -0.035388144163
 C   -5.162421685517   -1.658792194840   -0.060407681093
 O   -6.160067214757   -0.952315267890   -0.101809797900
 N   -3.872178495490   -1.051618661576   -0.042155226152
 H   -3.865531490378   -0.034399177441   -0.066812679782
