25

 N    2.898320330642    3.160604853842   -0.035328814894
 C    4.091560330642    3.871654853842   -0.023438814894
 H    3.987700330642    4.956244853842   -0.054428814894
 C    2.839820330642    1.792044853842    0.000681185106
 O    1.761630330642    1.166934853842   -0.005308814894
 N    4.056720330642    1.173944853842    0.044071185106
 H    4.050020330642    0.156784853842    0.071111185106
 C    5.346940330642    1.781154853842    0.062661185106
 O    6.344520330642    1.074754853842    0.107081185106
 C    5.295270330642    3.240394853842    0.023981185106
 H    6.230020330642    3.797644853842    0.034101185106
 H    2.009060330642    3.645294853842   -0.068648814894
 K   -0.255499669358   -0.169265146158    0.000431185106
 O   -1.672748745692   -1.108088234307    0.004464147631
 C   -2.750938296981   -1.733196245308   -0.001526025612
 N   -2.809388180314   -3.101827250420    0.032051751023
 H   -1.920087276229   -3.586563880781    0.063543394044
 C   -4.002630350083   -3.812864613188    0.020125333643
 H   -3.898724052181   -4.897505550791    0.049034118320
 C   -5.206393853242   -3.181529280797   -0.024858296019
 H   -6.141149481616   -3.738777649588   -0.035010177829
 C   -5.258123718815   -1.722218632280   -0.060820790843
 O   -6.255754461002   -1.015760736636   -0.102898451506
 N   -3.967884330327   -1.115039251857   -0.042494269047
 H   -3.961226756440   -0.097832891284   -0.067684511613
