25

 N    5.845462882463    5.113040901913   -0.041148857571
 C    7.038702882463    5.824090901913   -0.029258857571
 H    6.934842882463    6.908680901913   -0.060248857571
 C    5.786962882463    3.744480901913   -0.005138857571
 O    4.708772882463    3.119370901913   -0.011128857571
 N    7.003862882463    3.126380901913    0.038251142429
 H    6.997162882463    2.109220901913    0.065291142429
 C    8.294082882463    3.733590901913    0.056841142429
 O    9.291662882463    3.027190901913    0.101261142429
 C    8.242412882463    5.192830901913    0.018161142429
 H    9.177162882463    5.750080901913    0.028281142429
 H    4.956202882463    5.597730901913   -0.074468857571
 K    2.691642882463    1.783170901913   -0.005388857571
 O   -5.645116390093   -3.739317851905    0.018334451400
 C   -6.723305941382   -4.364425862907    0.012344278156
 N   -6.782286717367   -5.732345349144    0.067228076642
 H   -5.893394269448   -6.216530484952    0.114687456058
 C   -7.975482980019   -6.443464842869    0.055609520865
 H   -7.872025128944   -7.527507424092    0.102793789919
 C   -9.178675816471   -5.812910479804   -0.010591641745
 H  -10.113388032352   -6.370236075740   -0.020498386750
 C   -9.229833245565   -4.354359359681   -0.070327697314
 O  -10.226916838551   -3.648648659002   -0.132914446286
 N   -7.939720055759   -3.746983846759   -0.049753810694
 H   -7.932664161998   -2.730309504108   -0.091119822810
