25

 N    3.040350697934    3.254698796408   -0.035568159833
 C    4.233590697934    3.965748796408   -0.023678159833
 H    4.129730697934    5.050338796408   -0.054668159833
 C    2.981850697934    1.886138796408    0.000441840167
 O    1.903660697934    1.261028796408   -0.005548159833
 N    4.198750697934    1.268038796408    0.043831840167
 H    4.192050697934    0.250878796408    0.070871840167
 C    5.488970697934    1.875248796408    0.062421840167
 O    6.486550697934    1.168848796408    0.106841840167
 C    5.437300697934    3.334488796408    0.023741840167
 H    6.372050697934    3.891738796408    0.033861840167
 H    2.151090697934    3.739388796408   -0.068888159833
 K   -0.113469302066   -0.075171203592    0.000191840167
 O   -1.864188749303   -1.234893841894    0.005173735051
 C   -2.942378300591   -1.860001852895   -0.000816438192
 N   -3.000856339390   -3.228597405570    0.034129466807
 H   -2.111577215531   -3.713306294837    0.066646461366
 C   -4.194095476542   -3.939640187881    0.022222758993
 H   -4.090212884286   -5.024251483260    0.052305063789
 C   -5.397828246337   -3.308344808305   -0.024123363276
 H   -6.332581019679   -3.865598251784   -0.034259558798
 C   -5.449527975757   -1.849071510385   -0.061612413052
 O   -6.447129297267   -1.142651739416   -0.105007068326
 N   -4.159296063594   -1.241880618373   -0.043141503121
 H   -4.152617418032   -0.224700648934   -0.069370438770
