25

 N    3.288903979735    3.419363080359   -0.035999982761
 C    4.482143979735    4.130413080359   -0.024109982761
 H    4.378283979735    5.215003080359   -0.055099982761
 C    3.230403979735    2.050803080359    0.000010017239
 O    2.152213979735    1.425693080359   -0.005979982761
 N    4.447303979735    1.432703080359    0.043400017239
 H    4.440603979735    0.415543080359    0.070440017239
 C    5.737523979735    2.039913080359    0.061990017239
 O    6.735103979735    1.333513080359    0.106410017239
 C    5.685853979735    3.499153080359    0.023310017239
 H    6.620603979735    4.056403080359    0.033430017239
 H    2.399643979735    3.904053080359   -0.069319982761
 K    0.135083979735    0.089493080359   -0.000239982761
 O   -2.199208616581   -1.456803770710    0.006402543751
 C   -3.277398167869   -2.081911781711    0.000412370507
 N   -3.335925081694   -3.450444946391    0.037644905067
 H   -2.446683722319   -3.935105121248    0.071875623494
 C   -4.529159176221   -4.161496742090    0.025771157085
 H   -4.425317763243   -5.246055806324    0.057814834127
 C   -5.732838769714   -3.530271259770   -0.022852161179
 H   -6.667586791913   -4.087533149438   -0.032962122567
 C   -5.784486103326   -2.071063885088   -0.062892634493
 O   -6.782036502960   -1.364710851605   -0.108488444395
 N   -4.494266878839   -1.463853421595   -0.044180424343
 H   -4.487551635378   -0.446719940709   -0.072145387519
