25

 N    3.466442150298    3.536980323278   -0.036317887390
 C    4.659682150298    4.248030323278   -0.024427887390
 H    4.555822150298    5.332620323278   -0.055417887390
 C    3.407942150298    2.168420323278   -0.000307887390
 O    2.329752150298    1.543310323278   -0.006297887390
 N    4.624842150298    1.550320323278    0.043082112610
 H    4.618142150298    0.533160323278    0.070122112610
 C    5.915062150298    2.157530323278    0.061672112610
 O    6.912642150298    1.451130323278    0.106092112610
 C    5.863392150298    3.616770323278    0.022992112610
 H    6.798142150298    4.174020323278    0.033112112610
 H    2.577182150298    4.021670323278   -0.069637887390
 K    0.312622150298    0.207110323278   -0.000557887390
 O   -2.438508409645   -1.615310965483    0.007270804571
 C   -3.516697960933   -2.240418976484    0.001280631327
 N   -3.575259406977   -3.608907479117    0.040067991354
 H   -2.686044699634   -4.093532850728    0.075463977523
 C   -4.768490091255   -4.319965371715    0.028216667830
 H   -4.664677792873   -5.404486998938    0.061594008797
 C   -5.972132233045   -3.688789648551   -0.021955051263
 H   -6.906877039384   -4.246057256002   -0.032047162409
 C   -6.023742490075   -2.229629599045   -0.063730405204
 O   -7.021257014148   -1.523324101637   -0.110822911973
 N   -4.733532030046   -1.622405590679   -0.044854136608
 H   -4.726790915165   -0.605305421270   -0.073999536914
