25

 N    3.786011099478    3.748691117779   -0.036908371253
 C    4.979251099478    4.459741117779   -0.025018371253
 H    4.875391099478    5.544331117779   -0.056008371253
 C    3.727511099478    2.380131117779   -0.000898371253
 O    2.649321099478    1.755021117779   -0.006888371253
 N    4.944411099478    1.762031117779    0.042491628747
 H    4.937711099478    0.744871117779    0.069531628747
 C    6.234631099478    2.369241117779    0.061081628747
 O    7.232211099478    1.662841117779    0.105501628747
 C    6.182961099478    3.828481117779    0.022401628747
 H    7.117711099478    4.385731117779    0.032521628747
 H    2.896751099478    4.233381117779   -0.070228371253
 K    0.632191099478    0.418821117779   -0.001148371253
 O   -2.869247794996   -1.900624158825    0.008815418515
 C   -3.947437346284   -2.525732169826    0.002825245271
 N   -4.006060006104   -3.894140457969    0.044259829827
 H   -3.116892489660   -4.378703446050    0.081639780111
 C   -5.199284918702   -4.605208671684    0.032446710022
 H   -5.095524265901   -5.689662979415    0.068094732030
 C   -6.402860885775   -3.974121824666   -0.020361276180
 H   -7.337600244305   -4.531399119971   -0.030422973432
 C   -6.454405316944   -2.515047006868   -0.065090423085
 O   -7.451856430322   -1.808826461746   -0.114731169148
 N   -5.164210034919   -1.907799495753   -0.045934862463
 H   -5.157423034689   -0.890759210497   -0.077090060981
