25

 N    3.857026464311    3.795737915863   -0.037042582034
 C    5.050266464311    4.506787915863   -0.025152582034
 H    4.946406464311    5.591377915863   -0.056142582034
 C    3.798526464311    2.427177915863   -0.001032582034
 O    2.720336464311    1.802067915863   -0.007022582034
 N    5.015426464311    1.809077915863    0.042357417966
 H    5.008726464311    0.791917915863    0.069397417966
 C    6.305646464311    2.416287915863    0.060947417966
 O    7.303226464311    1.709887915863    0.105367417966
 C    6.253976464311    3.875527915863    0.022267417966
 H    7.188726464311    4.432777915863    0.032387417966
 H    2.967766464311    4.280427915863   -0.070362582034
 K    0.703206464311    0.465867915863   -0.001282582034
 O   -2.964967615614   -1.964027135817    0.009155673913
 C   -4.043157166902   -2.589135146818    0.003165500670
 N   -4.101793249290   -3.957525682938    0.045163531593
 H   -3.212636072129   -4.442074884265    0.082965756342
 C   -5.295016939042   -4.668596083783    0.033358547155
 H   -5.191267616286   -5.753035480692    0.069489870945
 C   -6.498578429221   -4.037528829670   -0.020010550114
 H   -7.433316632685   -4.594808179307   -0.030065770316
 C   -6.550108410610   -2.578472910344   -0.065368396159
 O   -7.547545648494   -1.872271100368   -0.115551517511
 N   -5.259916400734   -1.971220325006   -0.046153394998
 H   -5.253119335276   -0.954193301110   -0.077736367740
