25

 N    3.892534152592    3.819261308522   -0.037110076760
 C    5.085774152592    4.530311308522   -0.025220076760
 H    4.981914152592    5.614901308522   -0.056210076760
 C    3.834034152592    2.450701308522   -0.001100076760
 O    2.755844152592    1.825591308522   -0.007090076760
 N    5.050934152592    1.832601308522    0.042289923240
 H    5.044234152592    0.815441308522    0.069329923240
 C    6.341154152592    2.439811308522    0.060879923240
 O    7.338734152592    1.733411308522    0.105299923240
 C    6.289484152592    3.899051308522    0.022199923240
 H    7.224234152592    4.456301308522    0.032319923240
 H    3.003274152592    4.303951308522   -0.070430076760
 K    0.738714152592    0.489391308522   -0.001350076760
 O   -3.012827520059   -1.995728630696    0.009325412277
 C   -4.091017071347   -2.620836641697    0.003335239033
 N   -4.149659839083   -3.989218315586    0.045611762761
 H   -3.260507810522   -4.473760636628    0.083622703636
 C   -5.342882925150   -4.700289796205    0.033810799872
 H   -5.239139246218   -5.784721747714    0.070181003728
 C   -6.546437209071   -4.069232313860   -0.019835635540
 H   -7.481174842203   -4.626512677890   -0.029887653881
 C   -6.597959991490   -2.610185833600   -0.065504226854
 O   -7.595390322064   -1.903993368501   -0.115955425933
 N   -5.307769604320   -2.002930730934   -0.046259846877
 H   -5.300967525222   -0.985910328493   -0.078054254240
