25

 N    3.999057240909    3.889831460594   -0.037314083027
 C    5.192297240909    4.600881460594   -0.025424083027
 H    5.088437240909    5.685471460594   -0.056414083027
 C    3.940557240909    2.521271460594   -0.001304083027
 O    2.862367240909    1.896161460594   -0.007294083027
 N    5.157457240909    1.903171460594    0.042085916973
 H    5.150757240909    0.886011460594    0.069125916973
 C    6.447677240909    2.510381460594    0.060675916973
 O    7.445257240909    1.803981460594    0.105095916973
 C    6.396007240909    3.969621460594    0.021995916973
 H    7.330757240909    4.526871460594    0.032115916973
 H    3.109797240909    4.374521460594   -0.070634083027
 K    0.845237240909    0.559961460594   -0.001554083027
 O   -3.156407209918   -2.090833141239    0.009833105279
 C   -4.234596761206   -2.715941152240    0.003842932036
 N   -4.293259479010   -4.084296301200    0.046942305059
 H   -3.404122810565   -4.568818038475    0.085569929046
 C   -5.486480784219   -4.795370967336    0.035153226420
 H   -5.382753949965   -5.879780628545    0.072229237973
 C   -6.690013579751   -4.164342695929   -0.019312645128
 H   -7.624749529990   -4.721626053295   -0.029355201264
 C   -6.741514871701   -2.705324484307   -0.065899381278
 O   -7.738924603738   -1.999159957518   -0.117142655398
 N   -5.451329299909   -2.098061907841   -0.046568199706
 H   -5.444512257539   -1.081061327713   -0.078987322948
