25

 N    4.034564944842    3.913354835889   -0.037382582942
 C    5.227804944842    4.624404835889   -0.025492582942
 H    5.123944944842    5.708994835889   -0.056482582942
 C    3.976064944842    2.544794835889   -0.001372582942
 O    2.897874944842    1.919684835889   -0.007362582942
 N    5.192964944842    1.926694835889    0.042017417058
 H    5.186264944842    0.909534835889    0.069057417058
 C    6.483184944842    2.533904835889    0.060607417058
 O    7.480764944842    1.827504835889    0.105027417058
 C    6.431514944842    3.993144835889    0.021927417058
 H    7.366264944842    4.550394835889    0.032047417058
 H    3.145304944842    4.398044835889   -0.070702582942
 K    0.880744944842    0.583484835889   -0.001622582942
 O   -3.204267098711   -2.122534653482    0.010001838454
 C   -4.282456649999   -2.747642664483    0.004011665211
 N   -4.341125981933   -4.115988994126    0.047381190718
 H   -3.451994404578   -4.600503890411    0.086211279934
 C   -5.534346703380   -4.827064704534    0.035596014479
 H   -5.430625454573   -5.911466952478    0.072903752269
 C   -6.737872379989   -4.196046133855   -0.019138888464
 H   -7.672607778441   -4.753330472721   -0.029178337439
 C   -6.789366544638   -2.737037326860   -0.066027064143
 O   -7.786769452040   -2.030882079291   -0.117530386715
 N   -5.499182560590   -2.129772284922   -0.046667385281
 H   -5.492360556796   -1.112778296864   -0.079291611200
