25

 N    4.070072652686    3.936878206777   -0.037451327108
 C    5.263312652686    4.647928206777   -0.025561327108
 H    5.159452652686    5.732518206777   -0.056551327108
 C    4.011572652686    2.568318206777   -0.001441327108
 O    2.933382652686    1.943208206777   -0.007431327108
 N    5.228472652686    1.950218206777    0.041948672892
 H    5.221772652686    0.933058206777    0.068988672892
 C    6.518692652686    2.557428206777    0.060538672892
 O    7.516272652686    1.851028206777    0.104958672892
 C    6.467022652686    4.016668206777    0.021858672892
 H    7.401772652686    4.573918206777    0.031978672892
 H    3.180812652686    4.421568206777   -0.070771327108
 K    0.916252652686    0.607008206777   -0.001691327108
 O   -3.252126983592   -2.154236170133    0.010170327377
 C   -4.330316534880   -2.779344181134    0.004180154134
 N   -4.388992462733   -4.147681703449    0.047817805477
 H   -3.499865961815   -4.632189769462    0.086848840992
 C   -5.582212605246   -4.858758449523    0.036036502676
 H   -5.478496926925   -5.943153293351    0.073574228364
 C   -6.785731185057   -4.227749560756   -0.018965413179
 H   -7.720466036217   -4.785034873147   -0.029001778013
 C   -6.837218240828   -2.768750148277   -0.066152767145
 O   -7.834614344556   -2.062604162470   -0.117914187107
 N   -5.547035835933   -2.161482653634   -0.046764805186
 H   -5.540208884090   -1.144495249320   -0.079592595157
