25

 N    4.141088080107    3.983924935236   -0.037589537300
 C    5.334328080107    4.694974935236   -0.025699537300
 H    5.230468080107    5.779564935236   -0.056689537300
 C    4.082588080107    2.615364935236   -0.001579537300
 O    3.004398080107    1.990254935236   -0.007569537300
 N    5.299488080107    1.997264935236    0.041810462700
 H    5.292788080107    0.980104935236    0.068850462700
 C    6.589708080107    2.604474935236    0.060400462700
 O    7.587288080107    1.898074935236    0.104820462700
 C    6.538038080107    4.063714935236    0.021720462700
 H    7.472788080107    4.620964935236    0.031840462700
 H    3.251828080107    4.468614935236   -0.070909537300
 K    0.987268080107    0.654054935236   -0.001829537300
 O   -3.347846741623   -2.217639216750    0.010506583364
 C   -4.426036292911   -2.842747227751    0.004516410121
 N   -4.484725357392   -4.211067173243    0.048684323564
 H   -3.595608964998   -4.695561612188    0.088112762625
 C   -5.677944356285   -4.922145965253    0.036910682031
 H   -5.574239773525   -6.006526029943    0.074903246013
 C   -6.881448809269   -4.291156382308   -0.018619294217
 H   -7.816182579119   -4.848443618205   -0.028649558813
 C   -6.932921703291   -2.832175726302   -0.066398321856
 O   -7.930304262960   -2.126048210116   -0.118670170429
 N   -5.642742431165   -2.224903364230   -0.046954426714
 H   -5.635905623809   -1.207929100976   -0.080184797521
