25

 N    4.176595799677    4.007448292765   -0.037658997979
 C    5.369835799677    4.718498292765   -0.025768997979
 H    5.265975799677    5.803088292765   -0.056758997979
 C    4.118095799677    2.638888292765   -0.001648997979
 O    3.039905799677    2.013778292765   -0.007638997979
 N    5.334995799677    2.020788292765    0.041741002021
 H    5.328295799677    1.003628292765    0.068781002021
 C    6.625215799677    2.627998292765    0.060331002021
 O    7.622795799677    1.921598292765    0.104751002021
 C    6.573545799677    4.087238292765    0.021651002021
 H    7.508295799677    4.644488292765    0.031771002021
 H    3.287335799677    4.492138292765   -0.070978997979
 K    1.022775799677    0.677578292765   -0.001898997979
 O   -3.395706614778   -2.249340746759    0.010674355776
 C   -4.473896166066   -2.874448757760    0.004684182533
 N   -4.532591770983   -4.242759934651    0.049114276591
 H   -3.643480410495   -4.727247577433    0.088739206140
 C   -5.725810205075   -4.953839737136    0.037344423515
 H   -5.622111147143   -6.038212427595    0.075561875934
 C   -6.929307628215   -4.322859777360   -0.018446644391
 H   -7.864040863940   -4.880147963426   -0.028473892394
 C   -6.980773469711   -2.863888482243   -0.066518216900
 O   -7.978149289180   -2.157770173184   -0.119042439396
 N   -5.690595751317   -2.256613705291   -0.047046666977
 H   -5.683754036713   -1.239645998657   -0.080476088240
