25

 N    4.212103523150    4.030971645801   -0.037728692212
 C    5.405343523150    4.742021645801   -0.025838692212
 H    5.301483523150    5.826611645801   -0.056828692212
 C    4.153603523150    2.662411645801   -0.001718692212
 O    3.075413523150    2.037301645801   -0.007708692212
 N    5.370503523150    2.044311645801    0.041671307788
 H    5.363803523150    1.027151645801    0.068711307788
 C    6.660723523150    2.651521645801    0.060261307788
 O    7.658303523150    1.945121645801    0.104681307788
 C    6.609053523150    4.110761645801    0.021581307788
 H    7.543803523150    4.668011645801    0.031701307788
 H    3.322843523150    4.515661645801   -0.071048692212
 K    1.058283523150    0.701101645801   -0.001968692212
 O   -3.443566484030   -2.281042281261    0.010841894632
 C   -4.521756035318   -2.906150292262    0.004851721389
 N   -4.580458161918   -4.274452714329    0.049542058129
 H   -3.691351818318   -4.758933572931    0.089362025731
 C   -5.773676035806   -4.985533519094    0.037775965804
 H   -5.669982487245   -6.069898846054    0.076216644413
 C   -6.977166451593   -4.354563162191   -0.018274263647
 H   -7.911899157476   -4.911852290826   -0.028298517081
 C   -7.028625259676   -2.895601215714   -0.066636218762
 O   -8.025994360280   -2.189492094862   -0.119410949536
 N   -5.738449086657   -2.288324036333   -0.047137218856
 H   -5.731602478614   -1.271362876603   -0.080764219300
