25

 N    4.283118981789    4.078018338321   -0.037868771077
 C    5.476358981789    4.789068338321   -0.025978771077
 H    5.372498981789    5.873658338321   -0.056968771077
 C    4.224618981789    2.709458338321   -0.001858771077
 O    3.146428981789    2.084348338321   -0.007848771077
 N    5.441518981789    2.091358338321    0.041531228923
 H    5.434818981789    1.074198338321    0.068571228923
 C    6.731738981789    2.698568338321    0.060121228923
 O    7.729318981789    1.992168338321    0.104541228923
 C    6.680068981789    4.157808338321    0.021441228923
 H    7.614818981789    4.715058338321    0.031561228923
 H    3.393858981789    4.562708338321   -0.071188771077
 K    1.129298981789    0.748148338321   -0.002108771077
 O   -3.539286210842   -2.344445363818    0.011176281947
 C   -4.617475762131   -2.969553374819    0.005186108703
 N   -4.676190875363   -4.337838330193    0.050391202170
 H   -3.787094520182   -4.822305657526    0.090596952395
 C   -5.869407642416   -5.048921115322    0.038632549426
 H   -5.765725065796   -6.133271748920    0.077514766723
 C   -7.072884111267   -4.417969901947   -0.017930297593
 H   -8.007615770117   -4.975260893279   -0.027948627007
 C   -7.124328910470   -2.959026614056   -0.066866626144
 O   -8.121684637655   -2.252935811543   -0.120136858532
 N   -5.834155803362   -2.351744666860   -0.047313331657
 H   -5.827299450239   -1.334796570520   -0.081331141294
