25

 N    4.318626716946    4.101541677772   -0.037939150668
 C    5.511866716946    4.812591677772   -0.026049150668
 H    5.408006716946    5.897181677772   -0.057039150668
 C    4.260126716946    2.732981677772   -0.001929150668
 O    3.181936716946    2.107871677772   -0.007919150668
 N    5.477026716946    2.114881677772    0.041460849332
 H    5.470326716946    1.097721677772    0.068500849332
 C    6.767246716946    2.722091677772    0.060050849332
 O    7.764826716946    2.015691677772    0.104470849332
 C    6.715576716946    4.181331677772    0.021370849332
 H    7.650326716946    4.738581677772    0.031490849332
 H    3.429366716946    4.586231677772   -0.071259150668
 K    1.164806716946    0.771671677772   -0.002179150668
 O   -3.587146068411   -2.376146911904    0.011343135445
 C   -4.665335619699   -3.001254922905    0.005352962202
 N   -4.724057197664   -4.369531167187    0.050812611518
 H   -3.834965813871   -4.853991747979    0.091209137646
 C   -5.917273417979   -5.080614930594    0.039057638197
 H   -5.813596303728   -6.164958235017    0.078158203847
 C   -7.120742947382   -4.449673257241   -0.017758706489
 H   -8.055474088940   -5.006965168877   -0.027774105982
 C   -7.172180771400   -2.990739278362   -0.066979072511
 O   -8.169529844170   -2.284657605356   -0.120494338484
 N   -5.882009184942   -2.383454965626   -0.047398928999
 H   -5.875147980351   -1.366513385167   -0.081610000384
