25

 N    4.354134455987    4.125065012665   -0.038009753733
 C    5.547374455987    4.836115012665   -0.026119753733
 H    5.443514455987    5.920705012665   -0.057109753733
 C    4.295634455987    2.756505012665   -0.001999753733
 O    3.217444455987    2.131395012665   -0.007989753733
 N    5.512534455987    2.138405012665    0.041390246267
 H    5.505834455987    1.121245012665    0.068430246267
 C    6.802754455987    2.745615012665    0.059980246267
 O    7.800334455987    2.039215012665    0.104400246267
 C    6.751084455987    4.204855012665    0.021300246267
 H    7.685834455987    4.762105012665    0.031420246267
 H    3.464874455987    4.609755012665   -0.071329753733
 K    1.200314455987    0.795195012665   -0.002249753733
 O   -3.635005922096   -2.407848464549    0.011509765470
 C   -4.713195473384   -3.032956475550    0.005519592227
 N   -4.771923496891   -4.401224024071    0.051231943079
 H   -3.882837069182   -4.885677871398    0.091817855349
 C   -5.965139174847   -5.112308757945    0.039480622658
 H   -5.861467507108   -6.196644745304    0.078797946139
 C   -7.168601787564   -4.481376603053   -0.017587372872
 H   -8.103332415915   -5.038669427746   -0.027599863531
 C   -7.220032656077   -3.022451919068   -0.067089707399
 O   -8.217375096044   -2.316379355397   -0.120848221823
 N   -5.929862582140   -2.415165252934   -0.047482910808
 H   -5.922996540241   -1.398230177427   -0.081885836151
