25

 N    4.389642198907    4.148588342987   -0.038080577841
 C    5.582882198907    4.859638342987   -0.026190577841
 H    5.479022198907    5.944228342987   -0.057180577841
 C    4.331142198907    2.780028342987   -0.002070577841
 O    3.252952198907    2.154918342987   -0.008060577841
 N    5.548042198907    2.161928342987    0.041319422159
 H    5.541342198907    1.144768342987    0.068359422159
 C    6.838262198907    2.769138342987    0.059909422159
 O    7.835842198907    2.062738342987    0.104329422159
 C    6.786592198907    4.228378342987    0.021229422159
 H    7.721342198907    4.785628342987    0.031349422159
 H    3.500382198907    4.633278342987   -0.071400577841
 K    1.235822198907    0.818718342987   -0.002320577841
 O   -3.682865771902   -2.439550021766    0.011676174452
 C   -4.761055323190   -3.064658032767    0.005686001208
 N   -4.819789772954   -4.432916901213    0.051649219438
 H   -3.930708285967   -4.917364028400    0.092423143192
 C   -6.013004912880   -5.144002597835    0.039901525676
 H   -5.909338675708   -6.228331280558    0.079434033751
 C   -7.216460631727   -4.513079939558   -0.017416293949
 H   -8.151190750908   -5.070373670144   -0.027425896633
 C   -7.267884564538   -3.054164535922   -0.067198550497
 O   -8.265220393371   -2.348101061130   -0.121198547639
 N   -5.977715995051   -2.446875528453   -0.047565294640
 H   -5.970845130076   -1.429946946692   -0.082158681450
