25

 N    4.425149945699    4.172111668724   -0.038151620598
 C    5.618389945699    4.883161668724   -0.026261620598
 H    5.514529945699    5.967751668724   -0.057251620598
 C    4.366649945699    2.803551668724   -0.002141620598
 O    3.288459945699    2.178441668724   -0.008131620598
 N    5.583549945699    2.185451668724    0.041248379402
 H    5.576849945699    1.168291668724    0.068288379402
 C    6.873769945699    2.792661668724    0.059838379402
 O    7.871349945699    2.086261668724    0.104258379402
 C    6.822099945699    4.251901668724    0.021158379402
 H    7.756849945699    4.809151668724    0.031278379402
 H    3.535889945699    4.656801668724   -0.071471620598
 K    1.271329945699    0.842241668724   -0.002391620598
 O   -3.730725617835   -2.471251583567    0.011842364784
 C   -4.808915169123   -3.096359594568    0.005852191541
 N   -4.867656025771   -4.464609798968    0.052064462849
 H   -3.978579464087   -4.949050219580    0.093025038315
 C   -6.060870631947   -5.175696450711    0.040320369789
 H   -5.957209809313   -6.260017841530    0.080066506255
 C   -7.264319479787   -4.544783266928   -0.017245466967
 H   -8.199049093788   -5.102077896327   -0.027252202311
 C   -7.315736496816   -3.085877128680   -0.067305621212
 O   -8.313065736236   -2.379822722042   -0.121545354461
 N   -6.025569423763   -2.478585791867   -0.047646097799
 H   -6.018693750017   -1.461663692377   -0.082428568663
