25

 N    4.460657696357    4.195634989866   -0.038222879644
 C    5.653897696357    4.906684989866   -0.026332879644
 H    5.550037696357    5.991274989866   -0.057322879644
 C    4.402157696357    2.827074989866   -0.002212879644
 O    3.323967696357    2.201964989866   -0.008202879644
 N    5.619057696357    2.208974989866    0.041177120356
 H    5.612357696357    1.191814989866    0.068217120356
 C    6.909277696357    2.816184989866    0.059767120356
 O    7.906857696357    2.109784989866    0.104187120356
 C    6.857607696357    4.275424989866    0.021087120356
 H    7.792357696357    4.832674989866    0.031207120356
 H    3.571397696357    4.680324989866   -0.071542879644
 K    1.306837696357    0.865764989866   -0.002462879644
 O   -3.778585459902   -2.502953149964    0.012008338828
 C   -4.856775011190   -3.128061160965    0.006018165585
 N   -4.915522255267   -4.496302717678    0.052477695249
 H   -4.026450603415   -4.980736445509    0.093623577329
 C   -6.108736331920   -5.207390317002    0.040737177210
 H   -6.005080907720   -6.291704428943    0.080695402658
 C   -7.312178331661   -4.576486585331   -0.017074889210
 H   -8.246907444425   -5.133782106546   -0.027078777631
 C   -7.363588452938   -3.117589697112   -0.067410938670
 O   -8.360911124713   -2.411544337639   -0.121888680266
 N   -6.073422868359   -2.510296042865   -0.047725337340
 H   -6.066542400215   -1.493380413915   -0.082695529707
