25

 N    4.496165450874    4.219158306402   -0.038294352653
 C    5.689405450874    4.930208306402   -0.026404352653
 H    5.585545450874    6.014798306402   -0.057394352653
 C    4.437665450874    2.850598306402   -0.002284352653
 O    3.359475450874    2.225488306402   -0.008274352653
 N    5.654565450874    2.232498306402    0.041105647347
 H    5.647865450874    1.215338306402    0.068145647347
 C    6.944785450874    2.839708306402    0.059695647347
 O    7.942365450874    2.133308306402    0.104115647347
 C    6.893115450874    4.298948306402    0.021015647347
 H    7.827865450874    4.856198306402    0.031135647347
 H    3.606905450874    4.703848306402   -0.071614352653
 K    1.342345450874    0.889288306402   -0.002534352653
 O   -3.826445298111   -2.534654720965    0.012174098909
 C   -4.904634849399   -3.159762731966    0.006183925666
 N   -4.963388461371   -4.527995657670    0.052888938261
 H   -4.074321703831   -5.012422706739    0.094218796319
 C   -6.156602012680   -5.239084197126    0.041151969837
 H   -6.052951970736   -6.323391043498    0.081320761405
 C   -7.360037187268   -4.608189894933   -0.016904558004
 H   -8.294765802694   -5.165486301046   -0.026905619701
 C   -7.411440432928   -3.149302240996   -0.067514521725
 O   -8.408756558867   -2.443265907451   -0.122228562484
 N   -6.121276328919   -2.542006281153   -0.047803030073
 H   -6.114391080811   -1.525097110761   -0.082959596043
