25

 N    4.531673209243    4.242681618324   -0.038366037330
 C    5.724913209243    4.953731618324   -0.026476037330
 H    5.621053209243    6.038321618324   -0.057466037330
 C    4.473173209243    2.874121618324   -0.002356037330
 O    3.394983209243    2.249011618324   -0.008346037330
 N    5.690073209243    2.256021618324    0.041033962670
 H    5.683373209243    1.238861618324    0.068073962670
 C    6.980293209243    2.863231618324    0.059623962670
 O    7.977873209243    2.156831618324    0.104043962670
 C    6.928623209243    4.322471618324    0.020943962670
 H    7.863373209243    4.879721618324    0.031063962670
 H    3.642413209243    4.727371618324   -0.071686037330
 K    1.377853209243    0.912811618324   -0.002606037330
 O   -3.874305132468   -2.566356296582    0.012339647321
 C   -4.952494683756   -3.191464307583    0.006349474078
 N   -5.011254644019   -4.559688619260    0.053298213200
 H   -4.122192765226   -5.044109003797    0.094810730855
 C   -6.204467674113   -5.270778091484    0.041564769251
 H   -6.100822998179   -6.355077685871    0.081942620396
 C   -7.407896046529   -4.639893195894   -0.016734470711
 H   -8.342624168470   -5.197190480069   -0.026732725670
 C   -7.459292436806   -3.181014760122   -0.067616388962
 O   -8.456602038754   -2.474987431026   -0.122565038014
 N   -6.169129805516   -2.573716506443   -0.047879192570
 H   -6.162239791939   -1.556813782388   -0.083220798682
