25

 N    4.638196507377    4.313251526324   -0.038582338931
 C    5.831436507377    5.024301526324   -0.026692338931
 H    5.727576507377    6.108891526324   -0.057682338931
 C    4.579696507377    2.944691526324   -0.002572338931
 O    3.501506507377    2.319581526324   -0.008562338931
 N    5.796596507377    2.326591526324    0.040817661069
 H    5.789896507377    1.309431526324    0.067857661069
 C    7.086816507377    2.933801526324    0.059407661069
 O    8.084396507377    2.227401526324    0.103827661069
 C    7.035146507377    4.393041526324    0.020727661069
 H    7.969896507377    4.950291526324    0.030847661069
 H    3.748936507377    4.797941526324   -0.071902338931
 K    1.484376507377    0.983381526324   -0.002822338931
 O   -4.017884612510   -2.661461051196    0.012835044990
 C   -5.096074163798   -3.286569062197    0.006844871747
 N   -5.154853050658   -4.654767636598    0.054514438208
 H   -4.265805714330   -5.139168114941    0.096567175922
 C   -6.348064541407   -5.365859863793    0.042791419494
 H   -6.244435865419   -6.450137786317    0.083787569795
 C   -7.551472645471   -4.735003048506   -0.016225646493
 H   -8.486199309637   -5.292302926619   -0.026215599057
 C   -7.602848591892   -3.276152166978   -0.067911877677
 O   -8.600138753252   -2.570151720122   -0.123554385644
 N   -6.312690332206   -2.668847101608   -0.048098660848
 H   -6.305786109716   -1.651963640965   -0.083987527972
