25

 N    4.673704281070    4.336774819715   -0.038654847995
 C    5.866944281070    5.047824819715   -0.026764847995
 H    5.763084281070    6.132414819715   -0.057754847995
 C    4.615204281070    2.968214819715   -0.002644847995
 O    3.537014281070    2.343104819715   -0.008634847995
 N    5.832104281070    2.350114819715    0.040745152005
 H    5.825404281070    1.332954819715    0.067785152005
 C    7.122324281070    2.957324819715    0.059335152005
 O    8.119904281070    2.250924819715    0.103755152005
 C    7.070654281070    4.416564819715    0.020655152005
 H    8.005404281070    4.973814819715    0.030775152005
 H    3.784444281070    4.821464819715   -0.071974847995
 K    1.519884281070    1.006904819715   -0.002894847995
 O   -4.065744431543   -2.693162645343    0.012999769015
 C   -5.143933982831   -3.318270656344    0.007009595772
 N   -5.202719138939   -4.686460687500    0.054916048018
 H   -4.313676618726   -5.170854560210    0.097146318376
 C   -6.395930124518   -5.397553818850    0.043196455847
 H   -6.292306748965   -6.481824546268    0.084395798118
 C   -7.599331518591   -4.766706316459   -0.016056509217
 H   -8.534057704248   -5.324007046057   -0.026043732906
 C   -7.650700691428   -3.307864585147   -0.068007062275
 O   -8.647984416470   -2.601873054632   -0.123877593051
 N   -6.360543873606   -2.700557272237   -0.048168863465
 H   -6.353634944136   -1.683680206816   -0.084237577243
