25

 N    4.709212058571    4.360298108459   -0.038727557741
 C    5.902452058571    5.071348108459   -0.026837557741
 H    5.798592058571    6.155938108459   -0.057827557741
 C    4.650712058571    2.991738108459   -0.002717557741
 O    3.572522058571    2.366628108459   -0.008707557741
 N    5.867612058571    2.373638108459    0.040672442259
 H    5.860912058571    1.356478108459    0.067712442259
 C    7.157832058571    2.980848108459    0.059262442259
 O    8.155412058571    2.274448108459    0.103682442259
 C    7.106162058571    4.440088108459    0.020582442259
 H    8.040912058571    4.997338108459    0.030702442259
 H    3.819952058571    4.844988108459   -0.072047557741
 K    1.555392058571    1.030428108459   -0.002967557741
 O   -4.113604246767   -2.724864244138    0.013164292359
 C   -5.191793798056   -3.349972255139    0.007174119116
 N   -5.250585203518   -4.718153761404    0.055315791889
 H   -4.361547483685   -5.202541043662    0.097722346824
 C   -6.443795687824   -5.429247789959    0.043599602414
 H   -6.340177596184   -6.513511337081    0.085000708287
 C   -7.647190394995   -4.798409576533   -0.015887603216
 H   -8.581916105781   -5.355711151159   -0.025872116990
 C   -7.698552814888   -3.339576977641   -0.068100620108
 O   -8.695830125580   -2.633594340937   -0.124197570577
 N   -6.408397431349   -2.732267428581   -0.048237615250
 H   -6.401483809631   -1.715396745084   -0.084484911420
