25

 N    4.744719839872    4.383821392553   -0.038800466061
 C    5.937959839872    5.094871392553   -0.026910466061
 H    5.834099839872    6.179461392553   -0.057900466061
 C    4.686219839872    3.015261392553   -0.002790466061
 O    3.608029839872    2.390151392553   -0.008780466061
 N    5.903119839872    2.397161392553    0.040599533939
 H    5.896419839872    1.380001392553    0.067639533939
 C    7.193339839872    3.004371392553    0.059189533939
 O    8.190919839872    2.297971392553    0.103609533939
 C    7.141669839872    4.463611392553    0.020509533939
 H    8.076419839872    5.020861392553    0.030629533939
 H    3.855459839872    4.868511392553   -0.072120466061
 K    1.590899839872    1.053951392553   -0.003040466061
 O   -4.161464058192   -2.756565847582    0.013328617129
 C   -5.239653609480   -3.381673858583    0.007338443886
 N   -5.298451244360   -4.749846858556    0.055713689395
 H   -4.409418309148   -5.234227565710    0.098295293935
 C   -6.491661231245   -5.460941777447    0.044000879017
 H   -6.388048406952   -6.545198159301    0.085602335110
 C   -7.695049274612   -4.830112828871   -0.015718926066
 H   -8.629774514125   -5.387415242139   -0.025700748690
 C   -7.746404962268   -3.371289344305   -0.068192568245
 O   -8.743675880591   -2.665315578696   -0.124514352108
 N   -6.456251005483   -2.763977570409   -0.048304931425
 H   -6.449332706289   -1.747113255349   -0.084729558984
