25

 N    4.815735413833    4.430867946777   -0.038946870146
 C    6.008975413833    5.141917946777   -0.027056870146
 H    5.905115413833    6.226507946777   -0.058046870146
 C    4.757235413833    3.062307946777   -0.002936870146
 O    3.679045413833    2.437197946777   -0.008926870146
 N    5.974135413833    2.444207946777    0.040453129854
 H    5.967435413833    1.427047946777    0.067493129854
 C    7.264355413833    3.051417946777    0.059043129854
 O    8.261935413833    2.345017946777    0.103463129854
 C    7.212685413833    4.510657946777    0.020363129854
 H    8.147435413833    5.067907946777    0.030483129854
 H    3.926475413833    4.915557946777   -0.072266870146
 K    1.661915413833    1.100997946777   -0.003186870146
 O   -4.257183669682   -2.819969068434    0.013656679224
 C   -5.335373220971   -3.445077079435    0.007666505980
 N   -5.394183254716   -4.813233123545    0.056504022258
 H   -4.505159841383   -5.297600727171    0.099432072553
 C   -6.587392258140   -5.524329802806    0.044797900250
 H   -6.483789918687   -6.608571900048    0.086795875529
 C   -7.790767043217   -4.893519310898   -0.015382248801
 H   -8.725491350814   -5.450823382584   -0.025358744642
 C   -7.842109328752   -3.434713999552   -0.068371702515
 O   -8.839367528323   -2.728757907298   -0.125138460383
 N   -6.551958203103   -2.827397809640   -0.048435316761
 H   -6.545030593402   -1.810546190257   -0.085210906224
