25

 N    4.993274414509    4.548484250831   -0.039316213507
 C    6.186514414509    5.259534250831   -0.027426213507
 H    6.082654414509    6.344124250831   -0.058416213507
 C    4.934774414509    3.179924250831   -0.003306213507
 O    3.856584414509    2.554814250831   -0.009296213507
 N    6.151674414509    2.561824250831    0.040083786493
 H    6.144974414509    1.544664250831    0.067123786493
 C    7.441894414509    3.169034250831    0.058673786493
 O    8.439474414509    2.462634250831    0.103093786493
 C    7.390224414509    4.628274250831    0.019993786493
 H    8.324974414509    5.185524250831    0.030113786493
 H    4.104014414509    5.033174250831   -0.072636213507
 K    1.839454414509    1.218614250831   -0.003556213507
 O   -4.496482632634   -2.978477202072    0.014473501311
 C   -5.574672183922   -3.603585213073    0.008483328067
 N   -5.633512863592   -4.971699208299    0.058448862015
 H   -4.744512977995   -5.456034332162    0.102222296885
 C   -6.826719472788   -5.682800173569    0.046759064642
 H   -6.723143053145   -6.767006836076    0.089724613279
 C   -8.030061516372   -5.052035390076   -0.014544397311
 H   -8.964783554374   -5.609343500964   -0.024507891312
 C   -8.081370662659   -3.593275176144   -0.068792518534
 O   -9.078597450294   -2.887362858473   -0.126645084461
 N   -6.791226486742   -2.985948139156   -0.048737182367
 H   -6.784275861290   -1.969128010847   -0.086369177673
