25

 N    5.099797859573    4.619053977397   -0.039540027850
 C    6.293037859573    5.330103977397   -0.027650027850
 H    6.189177859573    6.414693977397   -0.058640027850
 C    5.041297859573    3.250493977397   -0.003530027850
 O    3.963107859573    2.625383977397   -0.009520027850
 N    6.258197859573    2.632393977397    0.039859972150
 H    6.251497859573    1.615233977397    0.066899972150
 C    7.548417859573    3.239603977397    0.058449972150
 O    8.545997859573    2.533203977397    0.102869972150
 C    7.496747859573    4.698843977397    0.019769972150
 H    8.431497859573    5.256093977397    0.029889972150
 H    4.210537859573    5.103743977397   -0.072860027850
 K    1.945977859573    1.289183977397   -0.003780027850
 O   -4.640061965747   -3.073582138120    0.014961386237
 C   -5.718251517035   -3.698690149121    0.008971212994
 N   -5.777110342582   -5.066779156257    0.059595232091
 H   -4.888124383410   -5.551094988739    0.103862163324
 C   -6.970315557796   -5.777882617217    0.047914966849
 H   -6.866754488697   -6.862068215535    0.091445340913
 C   -8.173638233237   -5.147144956322   -0.014044231820
 H   -9.108358949261   -5.704455420117   -0.024000133579
 C   -8.224927748504   -3.688411561212   -0.069027106548
 O   -9.222135952652   -2.982525222553   -0.127513515859
 N   -6.934787656600   -3.081078145459   -0.048902335916
 H   -6.927823401108   -2.064276735666   -0.087034262030
