25

 N    5.170813508028    4.666100438538   -0.039690126649
 C    6.364053508028    5.377150438538   -0.027800126649
 H    6.260193508028    6.461740438538   -0.058790126649
 C    5.112313508028    3.297540438538   -0.003680126649
 O    4.034123508028    2.672430438538   -0.009670126649
 N    6.329213508028    2.679440438538    0.039709873351
 H    6.322513508028    1.662280438538    0.066749873351
 C    7.619433508028    3.286650438538    0.058299873351
 O    8.617013508028    2.580250438538    0.102719873351
 C    7.567763508028    4.745890438538    0.019619873351
 H    8.502513508028    5.303140438538    0.029739873351
 H    4.281553508028    5.150790438538   -0.073010126649
 K    2.016993508028    1.336230438538   -0.003930126649
 O   -4.735781502742   -3.136985452055    0.015285753617
 C   -5.813971054031   -3.762093463056    0.009295580374
 N   -5.872841875950   -5.130165914750    0.060351210263
 H   -4.983865121795   -5.614468970033    0.104941608510
 C   -7.066046178929   -5.841271009020    0.048677193978
 H   -6.962495259393   -6.925442649003    0.092577788748
 C   -8.269356057263   -5.210551301950   -0.013711813196
 H   -9.204075907946   -5.767863305984   -0.023662737598
 C   -8.320632590844   -3.751835682708   -0.069176289967
 O   -9.317828515607   -3.045966542417   -0.128078157686
 N   -7.030495186680   -3.144498067235   -0.049006009149
 H   -7.023521919443   -2.127709060867   -0.087465620090
