25

 N    5.206321337743    4.689623662149   -0.039765437463
 C    6.399561337743    5.400673662149   -0.027875437463
 H    6.295701337743    6.485263662149   -0.058865437463
 C    5.147821337743    3.321063662149   -0.003755437463
 O    4.069631337743    2.695953662149   -0.009745437463
 N    6.364721337743    2.702963662149    0.039634562537
 H    6.358021337743    1.685803662149    0.066674562537
 C    7.654941337743    3.310173662149    0.058224562537
 O    8.652521337743    2.603773662149    0.102644562537
 C    7.603271337743    4.769413662149    0.019544562537
 H    8.538021337743    5.326663662149    0.029664562537
 H    4.317061337743    5.174313662149   -0.073085437463
 K    2.052501337743    1.359753662149   -0.004005437463
 O   -4.783641265753   -3.168687115982    0.015447675893
 C   -5.861830817041   -3.793795126983    0.009457502649
 N   -5.920707606875   -5.161859332380    0.060726768582
 H   -5.031735431465   -5.646156024470    0.105477274472
 C   -7.113911458750   -5.872965234360    0.049055845665
 H   -7.010365588735   -6.957129920913    0.093139690032
 C   -8.317214972948   -5.242254465542   -0.013545905231
 H   -9.251934395652   -5.799567231369   -0.023494365694
 C   -8.368485047435   -3.783547702668   -0.069248762517
 O   -9.365674865319   -3.077687124975   -0.128356271070
 N   -7.078348976806   -3.176208002966   -0.049055955741
 H   -7.071371226196   -2.159425175284   -0.087677762119
