25

 N    5.312844848684    4.760193305210   -0.039992394773
 C    6.506084848684    5.471243305210   -0.028102394773
 H    6.402224848684    6.555833305210   -0.059092394773
 C    5.254344848684    3.391633305210   -0.003982394773
 O    4.176154848684    2.766523305210   -0.009972394773
 N    6.471244848684    2.773533305210    0.039407605227
 H    6.464544848684    1.756373305210    0.066447605227
 C    7.761464848684    3.380743305210    0.057997605227
 O    8.759044848684    2.674343305210    0.102417605227
 C    7.709794848684    4.839983305210    0.019317605227
 H    8.644544848684    5.397233305210    0.029437605227
 H    4.423584848684    5.244883305210   -0.073312394773
 K    2.159024848684    1.430323305210   -0.004232394773
 O   -4.927220532990   -3.263792135536    0.015932417853
 C   -6.005410084278   -3.888900146537    0.009942244609
 N   -6.064304656810   -5.256939740324    0.061843913724
 H   -5.175346122698   -5.741217445503    0.107068368357
 C   -7.257507174996   -5.968048030415    0.050182148928
 H   -7.153976352483   -7.052191961087    0.094808446984
 C   -8.460791734073   -5.337363920729   -0.013049362801
 H   -9.395509891198   -5.894678939337   -0.022990528464
 C   -8.512042558387   -3.878683598659   -0.069457872027
 O   -9.509214186558   -3.172848561401   -0.129174115642
 N   -7.221910447590   -3.271337707983   -0.049198385669
 H   -7.214919336872   -2.254573322988   -0.088300321386
