25

 N    5.348352692886    4.783716510325   -0.040068383189
 C    6.541592692886    5.494766510325   -0.028178383189
 H    6.437732692886    6.579356510325   -0.059168383189
 C    5.289852692886    3.415156510325   -0.004058383189
 O    4.211662692886    2.790046510325   -0.010048383189
 N    6.506752692886    2.797056510325    0.039331616811
 H    6.500052692886    1.779896510325    0.066371616811
 C    7.796972692886    3.404266510325    0.057921616811
 O    8.794552692886    2.697866510325    0.102341616811
 C    7.745302692886    4.863506510325    0.019241616811
 H    8.680052692886    5.420756510325    0.029361616811
 H    4.459092692886    5.268406510325   -0.073388383189
 K    2.194532692886    1.453846510325   -0.004308383189
 O   -4.975080281512   -3.295493817959    0.016093662526
 C   -6.053269832800   -3.920601828960    0.010103489282
 N   -6.112170292577   -5.288633261706    0.062213171275
 H   -5.223216273962   -5.772904672398    0.107593519171
 C   -7.305372372624   -5.999742336371    0.050554419189
 H   -7.201846532266   -7.083879383588    0.095359143584
 C   -8.508650658971   -5.369067060944   -0.012884235987
 H   -9.443368400249   -5.926382819804   -0.022823001860
 C   -8.559895108945   -3.910395509183   -0.069524851542
 O   -9.557060717414   -3.204568936033   -0.129441322756
 N   -7.269764304658   -3.303047575198   -0.049243433135
 H   -7.262768770564   -2.286289306318   -0.088503295173
