25

 N    5.525891967477    4.901332466933   -0.040450771434
 C    6.719131967477    5.612382466933   -0.028560771434
 H    6.615271967477    6.696972466933   -0.059550771434
 C    5.467391967477    3.532772466933   -0.004440771434
 O    4.389201967477    2.907662466933   -0.010430771434
 N    6.684291967477    2.914672466933    0.038949228566
 H    6.677591967477    1.897512466933    0.065989228566
 C    7.974511967477    3.521882466933    0.057539228566
 O    8.972091967477    2.815482466933    0.101959228566
 C    7.922841967477    4.981122466933    0.018859228566
 H    8.857591967477    5.538372466933    0.028979228566
 H    4.636631967477    5.386022466933   -0.073770771434
 K    2.372071967477    1.571462466933   -0.004690771434
 O   -5.214378970549   -3.454002299042    0.016897439730
 C   -6.292568521837   -4.079110310043    0.010907266486
 N   -6.351498116048   -5.447101263579    0.064036712829
 H   -5.462566438671   -5.931341463528    0.110181312826
 C   -7.544698052055   -6.158214177853    0.052392733005
 H   -7.441196870208   -7.242317076048    0.098072176764
 C   -8.747945315258   -5.527582680157   -0.012061422082
 H   -9.682661020977   -6.084902062720   -0.021988420689
 C   -8.799158211280   -4.068954648930   -0.069839918965
 O   -9.796294046126   -3.363170023219   -0.130737986064
 N   -7.509033840872   -3.461596648045   -0.049450984239
 H   -7.502016414502   -2.444868720022   -0.089485066039
