25

 N    5.738939213062    5.042471464252   -0.040914813034
 C    6.932179213062    5.753521464252   -0.029024813034
 H    6.828319213062    6.838111464252   -0.060014813034
 C    5.680439213062    3.673911464252   -0.004904813034
 O    4.602249213062    3.048801464252   -0.010894813034
 N    6.897339213062    3.055811464252    0.038485186966
 H    6.890639213062    2.038651464252    0.065525186966
 C    8.187559213062    3.663021464252    0.057075186966
 O    9.185139213062    2.956621464252    0.101495186966
 C    8.135889213062    5.122261464252    0.018395186966
 H    9.070639213062    5.679511464252    0.028515186966
 H    4.849679213062    5.527161464252   -0.074234813034
 K    2.585119213062    1.712601464252   -0.005154813034
 O   -5.501537281318   -3.644212626952    0.017856796668
 C   -6.579726832606   -4.269320637953    0.011866623424
 N   -6.638690727081   -5.637263745037    0.066176834523
 H   -5.749785342444   -6.121467074898    0.113206345634
 C   -7.831888188633   -6.348381091225    0.054549964852
 H   -7.728416043935   -7.432443611471    0.101242229410
 C   -9.035098966950   -5.717801255386   -0.011080012856
 H   -9.969812322162   -6.275124822729   -0.020993381159
 C   -9.086274695672   -4.259224705100   -0.070176041884
 O  -10.083375511261   -3.553489589499   -0.132210675428
 N   -7.796157834758   -3.651854944680   -0.049662623562
 H   -7.789114629990   -2.635162888992   -0.090593159447
