27

 P   -1.259448928321    1.436121875443   -0.717734061872
 O   -1.853008928321    2.427921875443    0.273025938128
 O   -1.540178928321    1.439581875443   -2.213994061872
 O    0.422051071679    1.272911875443   -0.441614061872
 O   -1.399558928321   -0.155428124557   -0.103204061872
 C    1.194001071679    2.424331875443   -0.798864061872
 H    0.867551071679    3.297851875443   -0.213594061872
 H    1.085901071679    2.636711875443   -1.873764061872
 H    2.243421071679    2.198961875443   -0.570814061872
 C   -2.738828928321   -0.659908124557   -0.069194061872
 H   -3.159208928321   -0.692988124557   -1.086244061872
 H   -3.368768928321   -0.024088124557    0.571945938128
 H   -2.696288928321   -1.674788124557    0.345885938128
LI    0.491221071679   -0.560128124557    0.279935938128
 P    1.231877812641   -1.404682506106    0.702020631849
 O   -0.449623663633   -1.241471330709    0.425899988081
 O    1.371986239439    0.186862419341    0.087490034463
 O    1.825437569603   -2.396482610245   -0.288736320156
 O    1.512613111855   -1.408141447788    2.198288185430
 C   -1.221574240701   -2.392891381839    0.783154720759
 H   -0.895128061257   -3.266408712496    0.197889562161
 H   -1.113470198846   -2.605266896069    1.858055254339
 H   -2.270988779613   -2.167523599644    0.555106966399
 C    2.711257587721    0.691344414517    0.053476157658
 H    3.131634775322    0.724426646125    1.070525608814
 H    3.341186906794    0.055528016527   -0.587664624011
 H    2.668718535582    1.706218111907   -0.361601060929
