27

 P   -1.319485462283    1.504580197641   -0.751947619446
 O   -1.913045462283    2.496380197641    0.238812380554
 O   -1.600215462283    1.508040197641   -2.248207619446
 O    0.362014537717    1.341370197641   -0.475827619446
 O   -1.459595462283   -0.086969802359   -0.137417619446
 C    1.133964537717    2.492790197641   -0.833077619446
 H    0.807514537717    3.366310197641   -0.247807619446
 H    1.025864537717    2.705170197641   -1.907977619446
 H    2.183384537717    2.267420197641   -0.605027619446
 C   -2.798865462283   -0.591449802359   -0.103407619446
 H   -3.219245462283   -0.624529802359   -1.120457619446
 H   -3.428805462283    0.044370197641    0.537732380554
 H   -2.756325462283   -1.606329802359    0.311672380554
LI    0.431184537717   -0.491669802359    0.245722380554
 P    1.295284068839   -1.476983247500    0.738154523229
 O   -0.386217407434   -1.313772072103    0.462033879460
 O    1.435392495637    0.114561677947    0.123623925842
 O    1.888843825801   -2.468783351638   -0.252602428776
 O    1.576019368053   -1.480442189182    2.234422076809
 C   -1.158167984502   -2.465192123233    0.819288612139
 H   -0.831721805059   -3.338709453890    0.234023453541
 H   -1.050063942648   -2.677567637462    1.894189145718
 H   -2.207582523414   -2.239824341038    0.591240857778
 C    2.774663843919    0.619043673123    0.089610049038
 H    3.195041031520    0.652125904731    1.106659500194
 H    3.404593162992   -0.016772724867   -0.551530732631
 H    2.732124791780    1.633917370513   -0.325467169550
