27

 P   -1.349503729264    1.538809358739   -0.769054398233
 O   -1.943063729264    2.530609358739    0.221705601767
 O   -1.630233729264    1.542269358739   -2.265314398233
 O    0.331996270736    1.375599358739   -0.492934398233
 O   -1.489613729264   -0.052740641261   -0.154524398233
 C    1.103946270736    2.527019358739   -0.850184398233
 H    0.777496270736    3.400539358739   -0.264914398233
 H    0.995846270736    2.739399358739   -1.925084398233
 H    2.153366270736    2.301649358739   -0.622134398233
 C   -2.828883729264   -0.557220641261   -0.120514398233
 H   -3.249263729264   -0.590300641261   -1.137564398233
 H   -3.458823729264    0.078599358739    0.520625601767
 H   -2.786343729264   -1.572100641261    0.294565601767
LI    0.401166270736   -0.457440641261    0.228615601767
 P    1.326987196939   -1.513133618197    0.756221468918
 O   -0.354514279335   -1.349922442800    0.480100825150
 O    1.467095623737    0.078411307250    0.141690871532
 O    1.920546953901   -2.504933722335   -0.234535483087
 O    1.607722496152   -1.516592559879    2.252489022499
 C   -1.126464856403   -2.501342493930    0.837355557828
 H   -0.800018676959   -3.374859824587    0.252090399231
 H   -1.018360814548   -2.713718008159    1.912256091408
 H   -2.175879395315   -2.275974711735    0.609307803468
 C    2.806366972018    0.582893302426    0.107676994728
 H    3.226744159620    0.615975534034    1.124726445883
 H    3.436296291091   -0.052923095564   -0.533463786941
 H    2.763827919879    1.597766999816   -0.307400223860
