27

 P   -1.439558530207    1.641496842036   -0.820374734593
 O   -2.033118530207    2.633296842036    0.170385265407
 O   -1.720288530207    1.644956842036   -2.316634734593
 O    0.241941469793    1.478286842036   -0.544254734593
 O   -1.579668530207    0.049946842036   -0.205844734593
 C    1.013891469793    2.629706842036   -0.901504734593
 H    0.687441469793    3.503226842036   -0.316234734593
 H    0.905791469793    2.842086842036   -1.976404734593
 H    2.063311469793    2.404336842036   -0.673454734593
 C   -2.918938530207   -0.454533157964   -0.171834734593
 H   -3.339318530207   -0.487613157964   -1.188884734593
 H   -3.548878530207    0.181286842036    0.469305265407
 H   -2.876398530207   -1.469413157964    0.243245265407
LI    0.311111469793   -0.354753157964    0.177295265407
 P    1.422096581236   -1.621584730288    0.810422305988
 O   -0.259404895037   -1.458373554891    0.534301662220
 O    1.562205008034   -0.030039804841    0.195891708601
 O    2.015656338198   -2.613384834426   -0.180334646017
 O    1.702831880450   -1.625043671970    2.306689859568
 C   -1.031355472106   -2.609793606021    0.891556394898
 H   -0.704909292662   -3.483310936678    0.306291236300
 H   -0.923251430251   -2.822169120250    1.966456928478
 H   -2.080770011018   -2.384425823826    0.663508640538
 C    2.901476356316    0.474442190336    0.161877831797
 H    3.321853543917    0.507524421944    1.178927282953
 H    3.531405675389   -0.161374207655   -0.479262949872
 H    2.858937304177    1.489315887725   -0.253199386790
