27

 P   -3.901056422651    4.448288052138   -2.223130595123
 O   -4.494616422651    5.440088052138   -1.232370595123
 O   -4.181786422651    4.451748052138   -3.719390595123
 O   -2.219556422651    4.285078052138   -1.947010595123
 O   -4.041166422651    2.856738052138   -1.608600595123
 C   -1.447606422651    5.436498052138   -2.304260595123
 H   -1.774056422651    6.310018052138   -1.718990595123
 H   -1.555706422651    5.648878052138   -3.379160595123
 H   -0.398186422651    5.211128052138   -2.076210595123
 C   -5.380436422651    2.352258052138   -1.574590595123
 H   -5.800816422651    2.319178052138   -2.591640595123
 H   -6.010376422651    2.988078052138   -0.933450595123
 H   -5.337896422651    1.337378052138   -1.159510595123
LI   -2.150386422651    2.452038052138   -1.225460595123
 P    4.021753085370   -4.585915127437    2.291911852549
 O    2.340251609096   -4.422703952040    2.015791208781
 O    4.161861512168   -2.994370201990    1.677381255163
 O    4.615312842332   -5.577715231575    1.301154900544
 O    4.302488384584   -4.589374069119    3.788179406130
 C    1.568301032028   -5.574124003170    2.373045941459
 H    1.894747211472   -6.447641333827    1.787780782862
 H    1.676405073883   -5.786499517399    3.447946475039
 H    0.518886493116   -5.348756220975    2.144998187099
 C    5.501132860449   -2.489888206813    1.643367378359
 H    5.921510048051   -2.456805975205    2.660416829514
 H    6.131062179522   -3.125704604804    1.002226596690
 H    5.458593808311   -1.475014509424    1.228290159771
