27

 P   -1.499595064169    1.709955164233   -0.854588292167
 O   -2.093155064169    2.701755164233    0.136171707833
 O   -1.780325064169    1.713415164233   -2.350848292167
 O    0.181904935831    1.546745164233   -0.578468292167
 O   -1.639705064169    0.118405164233   -0.240058292167
 C    0.953854935831    2.698165164233   -0.935718292167
 H    0.627404935831    3.571685164233   -0.350448292167
 H    0.845754935831    2.910545164233   -2.010618292167
 H    2.003274935831    2.472795164233   -0.707668292167
 C   -2.978975064169   -0.386074835767   -0.206048292167
 H   -3.399355064169   -0.419154835767   -1.223098292167
 H   -3.608915064169    0.249745164233    0.435091707833
 H   -2.936435064169   -1.400954835767    0.209031707833
LI    0.251074935831   -0.286294835767    0.143081707833
 P    1.485502837435   -1.693885471682    0.846556197367
 O   -0.195998638839   -1.530674296285    0.570435553599
 O    1.625611264233   -0.102340546234    0.232025599981
 O    2.079062594397   -2.685685575820   -0.144200754638
 O    1.766238136648   -1.697344413364    2.342823750948
 C   -0.967949215907   -2.682094347414    0.927690286277
 H   -0.641503036463   -3.555611678071    0.342425127680
 H   -0.859845174053   -2.894469861644    2.002590819857
 H   -2.017363754819   -2.456726565220    0.699642531917
 C    2.964882612514    0.402141448942    0.198011723176
 H    3.385259800115    0.435223680550    1.215061174332
 H    3.594811931587   -0.233674949048   -0.443129058492
 H    2.922343560375    1.417015146331   -0.217065495411
