27

 P   -1.589649865113    1.812642647530   -0.905908628528
 O   -2.183209865113    2.804442647530    0.084851371472
 O   -1.870379865113    1.816102647530   -2.402168628528
 O    0.091850134887    1.649432647530   -0.629788628528
 O   -1.729759865113    0.221092647530   -0.291378628528
 C    0.863800134887    2.800852647530   -0.987038628528
 H    0.537350134887    3.674372647530   -0.401768628528
 H    0.755700134887    3.013232647530   -2.061938628528
 H    1.913220134887    2.575482647530   -0.758988628528
 C   -3.069029865113   -0.283387352470   -0.257368628528
 H   -3.489409865113   -0.316467352470   -1.274418628528
 H   -3.698969865113    0.352432647530    0.383771371472
 H   -3.026489865113   -1.298267352470    0.157711371472
LI    0.161020134887   -0.183607352470    0.091761371472
 P    1.580612221732   -1.802336583772    0.900757034437
 O   -0.100889254542   -1.639125408376    0.624636390668
 O    1.720720648530   -0.210791658325    0.286226437050
 O    2.174171978694   -2.794136687911   -0.089999917568
 O    1.861347520946   -1.805795525455    2.397024588017
 C   -0.872839831610   -2.790545459505    0.981891123347
 H   -0.546393652166   -3.664062790162    0.396625964749
 H   -0.764735789755   -3.002920973735    2.056791656926
 H   -1.922254370522   -2.565177677310    0.753843368986
 C    3.059991996812    0.293690336851    0.252212560246
 H    3.480369184413    0.326772568459    1.269262011402
 H    3.689921315885   -0.342126061139   -0.388928221423
 H    3.017452944673    1.308564034240   -0.162864658342
