27

 P   -1.679704666056    1.915330130826   -0.957228964889
 O   -2.273264666056    2.907130130826    0.033531035111
 O   -1.960434666056    1.918790130826   -2.453488964889
 O    0.001795333944    1.752120130826   -0.681108964889
 O   -1.819814666056    0.323780130826   -0.342698964889
 C    0.773745333944    2.903540130826   -1.038358964889
 H    0.447295333944    3.777060130826   -0.453088964889
 H    0.665645333944    3.115920130826   -2.113258964889
 H    1.823165333944    2.678170130826   -0.810308964889
 C   -3.159084666056   -0.180699869174   -0.308688964889
 H   -3.579464666056   -0.213779869174   -1.325738964889
 H   -3.789024666056    0.455120130826    0.332451035111
 H   -3.116544666056   -1.195579869174    0.106391035111
LI    0.070965333944   -0.080919869174    0.040441035111
 P    1.675721606030   -1.910787695863    0.954957871506
 O   -0.005779870244   -1.747576520467    0.678837227738
 O    1.815830032828   -0.319242770416    0.340427274120
 O    2.269281362992   -2.902587800002   -0.035799080499
 O    1.956456905244   -1.914246637545    2.451225425086
 C   -0.777730447312   -2.898996571596    1.036091960416
 H   -0.451284267868   -3.772513902253    0.450826801818
 H   -0.669626405457   -3.111372085826    2.110992493996
 H   -1.827144986224   -2.673628789401    0.808044206056
 C    3.155101381109    0.185239224760    0.306413397315
 H    3.575478568711    0.218321456368    1.323462848471
 H    3.785030700182   -0.450577173230   -0.334727384354
 H    3.112562328970    1.200112922150   -0.108663821272
