27

 P   -1.709722933037    1.949559291925   -0.974335743676
 O   -2.303282933037    2.941359291925    0.016424256324
 O   -1.990452933037    1.953019291925   -2.470595743676
 O   -0.028222933037    1.786349291925   -0.698215743676
 O   -1.849832933037    0.358009291925   -0.359805743676
 C    0.743727066963    2.937769291925   -1.055465743676
 H    0.417277066963    3.811289291925   -0.470195743676
 H    0.635627066963    3.150149291925   -2.130365743676
 H    1.793147066963    2.712399291925   -0.827415743676
 C   -3.189102933037   -0.146470708075   -0.325795743676
 H   -3.609482933037   -0.179550708075   -1.342845743676
 H   -3.819042933037    0.489349291925    0.315344256324
 H   -3.146562933037   -1.161350708075    0.089284256324
LI    0.040947066963   -0.046690708075    0.023334256324
 P    1.707424734129   -1.946938066560    0.973024817196
 O    0.025923257855   -1.783726891164    0.696904173428
 O    1.847533160927   -0.355393141113    0.358494219809
 O    2.300984491091   -2.938738170699   -0.017732134809
 O    1.988160033343   -1.950397008242    2.469292370776
 C   -0.746027319213   -2.935146942293    1.054158906106
 H   -0.419581139769   -3.808664272950    0.468893747508
 H   -0.637923277358   -3.147522456523    2.129059439686
 H   -1.795441858125   -2.709779160098    0.826111151746
 C    3.186804509208    0.149088854063    0.324480343005
 H    3.607181696810    0.182171085671    1.341529794161
 H    3.816733828281   -0.486727543927   -0.316660438664
 H    3.144265457070    1.163962551453   -0.090596875582
