27

 P   -1.739741200018    1.983788453024   -0.991442522463
 O   -2.333301200018    2.975588453024   -0.000682522463
 O   -2.020471200018    1.987248453024   -2.487702522463
 O   -0.058241200018    1.820578453024   -0.715322522463
 O   -1.879851200018    0.392238453024   -0.376912522463
 C    0.713708799982    2.971998453024   -1.072572522463
 H    0.387258799982    3.845518453024   -0.487302522463
 H    0.605608799982    3.184378453024   -2.147472522463
 H    1.763128799982    2.746628453024   -0.844522522463
 C   -3.219121200018   -0.112241546976   -0.342902522463
 H   -3.639501200018   -0.145321546976   -1.359952522463
 H   -3.849061200018    0.523578453024    0.298237477537
 H   -3.176581200018   -1.127121546976    0.072177477537
LI    0.010928799982   -0.012461546976    0.006227477537
 P    1.739127862228   -1.983088437257    0.991091762885
 O    0.057626385954   -1.819877261860    0.714971119117
 O    1.879236289026   -0.391543511810    0.376561165499
 O    2.332687619190   -2.974888541396    0.000334810881
 O    2.019863161442   -1.986547378939    2.487359316466
 C   -0.714324191114   -2.971297312990    1.072225851795
 H   -0.387878011670   -3.844814643647    0.486960693198
 H   -0.606220149259   -3.183672827220    2.147126385375
 H   -1.763738730026   -2.745929530795    0.844178097435
 C    3.218507637308    0.112938483366    0.342547288695
 H    3.638884824909    0.146020714974    1.359596739850
 H    3.848436956381   -0.522877914624   -0.298593492974
 H    3.175968585169    1.127812180756   -0.072529929893
