27

 P   -1.799777733980    2.052246775221   -1.025656080037
 O   -2.393337733980    3.044046775221   -0.034896080037
 O   -2.080507733980    2.055706775221   -2.521916080037
 O   -0.118277733980    1.889036775221   -0.749536080037
 O   -1.939887733980    0.460696775221   -0.411126080037
 C    0.653672266020    3.040456775221   -1.106786080037
 H    0.327222266020    3.913976775221   -0.521516080037
 H    0.545572266020    3.252836775221   -2.181686080037
 H    1.703092266020    2.815086775221   -0.878736080037
 C   -3.279157733980   -0.043783224779   -0.377116080037
 H   -3.699537733980   -0.076863224779   -1.394166080037
 H   -3.909097733980    0.592036775221    0.264023919963
 H   -3.236617733980   -1.058663224779    0.037963919963
LI   -0.049107733980    0.055996775221   -0.027986080037
 P    1.802534118427   -2.055389178651    1.027225654265
 O    0.121032642153   -1.892178003254    0.751105010497
 O    1.942642545224   -0.463844253204    0.412695056879
 O    2.396093875388   -3.047189282789    0.036468702260
 O    2.083269417640   -2.058848120333    2.523493207846
 C   -0.650917934915   -3.043598054384    1.108359743175
 H   -0.324471755472   -3.917115385041    0.523094584577
 H   -0.542813893061   -3.255973568613    2.183260276755
 H   -1.700332473827   -2.818230272189    0.880311988815
 C    3.281913893506    0.040637741972    0.378681180074
 H    3.702291081107    0.073719973580    1.395730631230
 H    3.911843212579   -0.595178656018   -0.262459601595
 H    3.239374841367    1.055511439362   -0.036396038513
