27

 P   -1.859814267942    2.120705097419   -1.059869637611
 O   -2.453374267942    3.112505097419   -0.069109637611
 O   -2.140544267942    2.124165097419   -2.556129637611
 O   -0.178314267942    1.957495097419   -0.783749637611
 O   -1.999924267942    0.529155097419   -0.445339637611
 C    0.593635732058    3.108915097419   -1.140999637611
 H    0.267185732058    3.982435097419   -0.555729637611
 H    0.485535732058    3.321295097419   -2.215899637611
 H    1.643055732058    2.883545097419   -0.912949637611
 C   -3.339194267942    0.024675097419   -0.411329637611
 H   -3.759574267942   -0.008404902581   -1.428379637611
 H   -3.969134267942    0.660495097419    0.229810362389
 H   -3.296654267942   -0.990204902581    0.003750362389
LI   -0.109144267942    0.124455097419   -0.062199637611
 P    1.865940374625   -2.127689920045    1.063359545645
 O    0.184438898351   -1.964478744648    0.787238901876
 O    2.006048801423   -0.536144994598    0.448828948258
 O    2.459500131587   -3.119490024183    0.072602593640
 O    2.146675673839   -2.131148861727    2.559627099225
 C   -0.587511678717   -3.115898795778    1.144493634555
 H   -0.261065499273   -3.989416126435    0.559228475957
 H   -0.479407636862   -3.328274310007    2.219394168134
 H   -1.636926217629   -2.890531013583    0.916445880194
 C    3.345320149704   -0.031662999422    0.414815071454
 H    3.765697337306    0.001419232186    1.431864522609
 H    3.975249468777   -0.667479397412   -0.226325710215
 H    3.302781097566    0.983210697968   -0.000262147134
