27

 P   -1.889832534923    2.154934258518   -1.076976416398
 O   -2.483392534923    3.146734258518   -0.086216416398
 O   -2.170562534923    2.158394258518   -2.573236416398
 O   -0.208332534923    1.991724258518   -0.800856416398
 O   -2.029942534923    0.563384258518   -0.462446416398
 C    0.563617465077    3.143144258518   -1.158106416398
 H    0.237167465077    4.016664258518   -0.572836416398
 H    0.455517465077    3.355524258518   -2.233006416398
 H    1.613037465077    2.917774258518   -0.930056416398
 C   -3.369212534923    0.058904258518   -0.428436416398
 H   -3.789592534923    0.025824258518   -1.445486416398
 H   -3.999152534923    0.694724258518    0.212703583602
 H   -3.326672534923   -0.955975741482   -0.013356416398
LI   -0.139162534923    0.158684258518   -0.079306416398
 P    1.897643502724   -2.163840290742    1.081426491334
 O    0.216142026450   -2.000629115345    0.805305847566
 O    2.037751929522   -0.572295365295    0.466895893948
 O    2.491203259686   -3.155640394880    0.090669539329
 O    2.178378801938   -2.167299232424    2.577694044915
 C   -0.555808550618   -3.152049166475    1.162560580244
 H   -0.229362371174   -4.025566497132    0.577295421647
 H   -0.447704508763   -3.364424680704    2.237461113824
 H   -1.605223089530   -2.926681384280    0.934512825884
 C    3.377023277804   -0.067813370118    0.432882017144
 H    3.797400465405   -0.034731138511    1.449931468299
 H    4.006952596877   -0.703629768109   -0.208258764525
 H    3.334484225665    0.947060327271    0.017804798556
