27

 P   -1.919850801904    2.189163419617   -1.094083195185
 O   -2.513410801904    3.180963419617   -0.103323195185
 O   -2.200580801904    2.192623419617   -2.590343195185
 O   -0.238350801904    2.025953419617   -0.817963195185
 O   -2.059960801904    0.597613419617   -0.479553195185
 C    0.533599198096    3.177373419617   -1.175213195185
 H    0.207149198096    4.050893419617   -0.589943195185
 H    0.425499198096    3.389753419617   -2.250113195185
 H    1.583019198096    2.952003419617   -0.947163195185
 C   -3.399230801904    0.093133419617   -0.445543195185
 H   -3.819610801904    0.060053419617   -1.462593195185
 H   -4.029170801904    0.728953419617    0.195596804815
 H   -3.356690801904   -0.921746580383   -0.030463195185
LI   -0.169180801904    0.192913419617   -0.096413195185
 P    1.929346630823   -2.199990661439    1.099493437024
 O    0.247845154550   -2.036779486042    0.823372793256
 O    2.069455057621   -0.608445735992    0.484962839638
 O    2.522906387785   -3.191790765577    0.108736485019
 O    2.210081930037   -2.203449603121    2.595760990605
 C   -0.524105422519   -3.188199537172    1.180627525934
 H   -0.197659243075   -4.061716867829    0.595362367336
 H   -0.416001380664   -3.400575051401    2.255528059514
 H   -1.573519961431   -2.962831754977    0.952579771574
 C    3.408726405903   -0.103963740815    0.450948962833
 H    3.829103593504   -0.070881509207    1.467998413989
 H    4.038655724976   -0.739780138806   -0.190191818836
 H    3.366187353764    0.910909956574    0.035871744246
