27

 P   -1.949869068885    2.223392580716   -1.111189973971
 O   -2.543429068885    3.215192580716   -0.120429973971
 O   -2.230599068885    2.226852580716   -2.607449973971
 O   -0.268369068885    2.060182580716   -0.835069973971
 O   -2.089979068885    0.631842580716   -0.496659973971
 C    0.503580931115    3.211602580716   -1.192319973971
 H    0.177130931115    4.085122580716   -0.607049973971
 H    0.395480931115    3.423982580716   -2.267219973971
 H    1.553000931115    2.986232580716   -0.964269973971
 C   -3.429249068885    0.127362580716   -0.462649973971
 H   -3.849629068885    0.094282580716   -1.479699973971
 H   -4.059189068885    0.763182580716    0.178490026029
 H   -3.386709068885   -0.887517419284   -0.047569973971
LI   -0.199199068885    0.227142580716   -0.113519973971
 P    1.961049758923   -2.236141032136    1.117560382714
 O    0.279548282649   -2.072929856739    0.841439738946
 O    2.101158185720   -0.644596106689    0.503029785328
 O    2.554609515884   -3.227941136274    0.126803430709
 O    2.241785058136   -2.239599973818    2.613827936294
 C   -0.492402294419   -3.224349907869    1.198694471624
 H   -0.165956114976   -4.097867238526    0.613429313026
 H   -0.384298252565   -3.436725422098    2.273595005204
 H   -1.541816833331   -2.998982125674    0.970646717264
 C    3.440429534002   -0.140114111512    0.469015908523
 H    3.860806721603   -0.107031879904    1.486065359679
 H    4.070358853075   -0.775930509503   -0.172124873146
 H    3.397890481863    0.874759585877    0.053938689936
