27

 P   -1.979887335866    2.257621741814   -1.128296752758
 O   -2.573447335866    3.249421741814   -0.137536752758
 O   -2.260617335866    2.261081741814   -2.624556752758
 O   -0.298387335866    2.094411741814   -0.852176752758
 O   -2.119997335866    0.666071741814   -0.513766752758
 C    0.473562664134    3.245831741814   -1.209426752758
 H    0.147112664134    4.119351741814   -0.624156752758
 H    0.365462664134    3.458211741814   -2.284326752758
 H    1.522982664134    3.020461741814   -0.981376752758
 C   -3.459267335866    0.161591741814   -0.479756752758
 H   -3.879647335866    0.128511741814   -1.496806752758
 H   -4.089207335866    0.797411741814    0.161383247242
 H   -3.416727335866   -0.853288258186   -0.064676752758
LI   -0.229217335866    0.261371741814   -0.130626752758
 P    1.992752887022   -2.272291402833    1.135627328404
 O    0.311251410748   -2.109080227436    0.859506684636
 O    2.132861313820   -0.680746477386    0.521096731017
 O    2.586312643984   -3.264091506971    0.144870376399
 O    2.273488186235   -2.275750344515    2.631894881984
 C   -0.460699166320   -3.260500278565    1.216761417314
 H   -0.134252986876   -4.134017609222    0.631496258716
 H   -0.352595124465   -3.472875792795    2.291661950894
 H   -1.510113705232   -3.035132496371    0.988713662954
 C    3.472132662101   -0.176264482209    0.487082854213
 H    3.892509849703   -0.143182250601    1.504132305369
 H    4.102061981174   -0.812080880199   -0.154057927456
 H    3.429593609962    0.838609215180    0.072005635626
