27

 P   -2.039923869828    2.326080064012   -1.162510310332
 O   -2.633483869828    3.317880064012   -0.171750310332
 O   -2.320653869828    2.329540064012   -2.658770310332
 O   -0.358423869828    2.162870064012   -0.886390310332
 O   -2.180033869828    0.734530064012   -0.547980310332
 C    0.413526130172    3.314290064012   -1.243640310332
 H    0.087076130172    4.187810064012   -0.658370310332
 H    0.305426130172    3.526670064012   -2.318540310332
 H    1.462946130172    3.088920064012   -1.015590310332
 C   -3.519303869828    0.230050064012   -0.513970310332
 H   -3.939683869828    0.196970064012   -1.531020310332
 H   -4.149243869828    0.865870064012    0.127169689668
 H   -3.476763869828   -0.784829935988   -0.098890310332
LI   -0.289253869828    0.329830064012   -0.164840310332
 P    2.056159143220   -2.344592144226    1.171761219783
 O    0.374657666946   -2.181380968830    0.895640576015
 O    2.196267570018   -0.753047218779    0.557230622397
 O    2.649718900182   -3.336392248365    0.181004267778
 O    2.336894442434   -2.348051085909    2.668028773364
 C   -0.397292910122   -3.332801019959    1.252895308693
 H   -0.070846730678   -4.206318350616    0.667630150095
 H   -0.289188868267   -3.545176534189    2.327795842273
 H   -1.446707449034   -3.107433237765    1.024847554333
 C    3.535538918299   -0.248565223603    0.523216745592
 H    3.955916105901   -0.215482991995    1.540266196748
 H    4.165468237373   -0.884381621593   -0.117924036076
 H    3.492999866161    0.766308473786    0.108139527005
