27

 P   -2.099960403790    2.394538386210   -1.196723867906
 O   -2.693520403790    3.386338386210   -0.205963867906
 O   -2.380690403790    2.397998386210   -2.692983867906
 O   -0.418460403790    2.231328386210   -0.920603867906
 O   -2.240070403790    0.802988386210   -0.582193867906
 C    0.353489596210    3.382748386210   -1.277853867906
 H    0.027039596210    4.256268386210   -0.692583867906
 H    0.245389596210    3.595128386210   -2.352753867906
 H    1.402909596210    3.157378386210   -1.049803867906
 C   -3.579340403790    0.298508386210   -0.548183867906
 H   -3.999720403790    0.265428386210   -1.565233867906
 H   -4.209280403790    0.934328386210    0.092956132094
 H   -3.536800403790   -0.716371613790   -0.133103867906
LI   -0.349290403790    0.398288386210   -0.199053867906
 P    2.119565399418   -2.416892885620    1.207895111163
 O    0.438063923145   -2.253681710224    0.931774467395
 O    2.259673826216   -0.825347960173    0.593364513776
 O    2.713125156380   -3.408692989759    0.217138159158
 O    2.400300698632   -2.420351827303    2.704162664743
 C   -0.333886653924   -3.405101761353    1.289029200073
 H   -0.007440474480   -4.278619092010    0.703764041475
 H   -0.225782612069   -3.617477275583    2.363929733653
 H   -1.383301192836   -3.179733979158    1.060981445713
 C    3.598945174498   -0.320865964997    0.559350636972
 H    4.019322362099   -0.287783733389    1.576400088128
 H    4.228874493571   -0.956682362987   -0.081790144697
 H    3.556406122359    0.694007732392    0.144273418385
