27

 P   -2.159996937752    2.462996708407   -1.230937425480
 O   -2.753556937752    3.454796708407   -0.240177425480
 O   -2.440726937752    2.466456708407   -2.727197425480
 O   -0.478496937752    2.299786708407   -0.954817425480
 O   -2.300106937752    0.871446708407   -0.616407425480
 C    0.293453062248    3.451206708407   -1.312067425480
 H   -0.032996937752    4.324726708407   -0.726797425480
 H    0.185353062248    3.663586708407   -2.386967425480
 H    1.342873062248    3.225836708407   -1.084017425480
 C   -3.639376937752    0.366966708407   -0.582397425480
 H   -4.059756937752    0.333886708407   -1.599447425480
 H   -4.269316937752    1.002786708407    0.058742574520
 H   -3.596836937752   -0.647913291593   -0.167317425480
LI   -0.409326937752    0.466746708407   -0.233267425480
 P    2.182971655617   -2.489193627014    1.244029002542
 O    0.501470179343   -2.325982451618    0.967908358774
 O    2.323080082415   -0.897648701567    0.629498405156
 O    2.776531412579   -3.480993731153    0.253272050537
 O    2.463706954831   -2.492652568696    2.740296556123
 C   -0.270480397725   -3.477402502747    1.325163091452
 H    0.055965781719   -4.350919833404    0.739897932855
 H   -0.162376355870   -3.689778016977    2.400063625032
 H   -1.319894936637   -3.252034720552    1.097115337092
 C    3.662351430696   -0.393166706391    0.595484528352
 H    4.082728618298   -0.360084474783    1.612533979507
 H    4.292280749769   -1.028983104381   -0.045656253317
 H    3.619812378557    0.621706990999    0.180407309764
