27

 P   -2.190015204733    2.497225869506   -1.248044204267
 O   -2.783575204733    3.489025869506   -0.257284204267
 O   -2.470745204733    2.500685869506   -2.744304204267
 O   -0.508515204733    2.334015869506   -0.971924204267
 O   -2.330125204733    0.905675869506   -0.633514204267
 C    0.263434795267    3.485435869506   -1.329174204267
 H   -0.063015204733    4.358955869506   -0.743904204267
 H    0.155334795267    3.697815869506   -2.404074204267
 H    1.312854795267    3.260065869506   -1.101124204267
 C   -3.669395204733    0.401195869506   -0.599504204267
 H   -4.089775204733    0.368115869506   -1.616554204267
 H   -4.299335204733    1.037015869506    0.041635795733
 H   -3.626855204733   -0.613684130494   -0.184424204267
LI   -0.439345204733    0.500975869506   -0.250374204267
 P    2.214674783716   -2.525343997711    1.262095948232
 O    0.533173307442   -2.362132822315    0.985975304464
 O    2.354783210514   -0.933799072264    0.647565350846
 O    2.808234540678   -3.517144101850    0.271338996227
 O    2.495410082930   -2.528802939393    2.758363501813
 C   -0.238777269626   -3.513552873444    1.343230037142
 H    0.087668909818   -4.387070204101    0.757964878544
 H   -0.130673227771   -3.725928387674    2.418130570722
 H   -1.288191808538   -3.288185091249    1.115182282782
 C    3.694054558795   -0.429317077088    0.613551474041
 H    4.114431746397   -0.396234845480    1.630600925197
 H    4.323983877868   -1.065133475078   -0.027589307628
 H    3.651515506657    0.585556620302    0.198474255454
