27

 P   -2.220033471714    2.531455030605   -1.265150983054
 O   -2.813593471714    3.523255030605   -0.274390983054
 O   -2.500763471714    2.534915030605   -2.761410983054
 O   -0.538533471714    2.368245030605   -0.989030983054
 O   -2.360143471714    0.939905030605   -0.650620983054
 C    0.233416528286    3.519665030605   -1.346280983054
 H   -0.093033471714    4.393185030605   -0.761010983054
 H    0.125316528286    3.732045030605   -2.421180983054
 H    1.282836528286    3.294295030605   -1.118230983054
 C   -3.699413471714    0.435425030605   -0.616610983054
 H   -4.119793471714    0.402345030605   -1.633660983054
 H   -4.329353471714    1.071245030605    0.024529016946
 H   -3.656873471714   -0.579454969395   -0.201530983054
LI   -0.469363471714    0.535205030605   -0.267480983054
 P    2.246377911815   -2.561494368408    1.280162893922
 O    0.564876435541   -2.398283193011    1.004042250154
 O    2.386486338613   -0.969949442961    0.665632296536
 O    2.839937668777   -3.553294472547    0.289405941917
 O    2.527113211029   -2.564953310090    2.776430447502
 C   -0.207074141527   -3.549703244141    1.361296982832
 H    0.119372037917   -4.423220574798    0.776031824234
 H   -0.098970099672   -3.762078758371    2.436197516412
 H   -1.256488680439   -3.324335461946    1.133249228472
 C    3.725757686895   -0.465467447785    0.631618419731
 H    4.146134874496   -0.432385216177    1.648667870887
 H    4.355687005968   -1.101283845775   -0.009522361938
 H    3.683218634756    0.549406249605    0.216541201144
