27

 P   -2.280070005676    2.599913352802   -1.299364540628
 O   -2.873630005676    3.591713352802   -0.308604540628
 O   -2.560800005676    2.603373352802   -2.795624540628
 O   -0.598570005676    2.436703352802   -1.023244540628
 O   -2.420180005676    1.008363352802   -0.684834540628
 C    0.173379994324    3.588123352802   -1.380494540628
 H   -0.153070005676    4.461643352802   -0.795224540628
 H    0.065279994324    3.800503352802   -2.455394540628
 H    1.222799994324    3.362753352802   -1.152444540628
 C   -3.759450005676    0.503883352802   -0.650824540628
 H   -4.179830005676    0.470803352802   -1.667874540628
 H   -4.389390005676    1.139703352802   -0.009684540628
 H   -3.716910005676   -0.510996647198   -0.235744540628
LI   -0.529400005676    0.603663352802   -0.301694540628
 P    2.309784168014   -2.633795109802    1.316296785301
 O    0.628282691740   -2.470583934405    1.040176141533
 O    2.449892594812   -1.042250184355    0.701766187915
 O    2.903343924975   -3.625595213940    0.325539833296
 O    2.590519467227   -2.637254051484    2.812564338882
 C   -0.143667885328   -3.622003985535    1.397430874211
 H    0.182778294115   -4.495521316192    0.812165715614
 H   -0.035563843474   -3.834379499764    2.472331407791
 H   -1.193082424240   -3.396636203340    1.169383119851
 C    3.789163943093   -0.537768189179    0.667752311111
 H    4.209541130694   -0.504685957571    1.684801762266
 H    4.419093262166   -1.173584587169    0.026611529442
 H    3.746624890954    0.477105508211    0.252675092523
