27

 P   -2.310088272657    2.634142513901   -1.316471319415
 O   -2.903648272657    3.625942513901   -0.325711319415
 O   -2.590818272657    2.637602513901   -2.812731319415
 O   -0.628588272657    2.470932513901   -1.040351319415
 O   -2.450198272657    1.042592513901   -0.701941319415
 C    0.143361727343    3.622352513901   -1.397601319415
 H   -0.183088272657    4.495872513901   -0.812331319415
 H    0.035261727343    3.834732513901   -2.472501319415
 H    1.192781727343    3.396982513901   -1.169551319415
 C   -3.789468272657    0.538112513901   -0.667931319415
 H   -4.209848272657    0.505032513901   -1.684981319415
 H   -4.419408272657    1.173932513901   -0.026791319415
 H   -3.746928272657   -0.476767486099   -0.252851319415
LI   -0.559418272657    0.637892513901   -0.318801319415
 P    2.341487296113   -2.669945480499    1.334363730991
 O    0.659985819839   -2.506734305102    1.058243087223
 O    2.481595722911   -1.078400555052    0.719833133605
 O    2.935047053075   -3.661745584637    0.343606778986
 O    2.622222595327   -2.673404422181    2.830631284572
 C   -0.111964757229   -3.658154356232    1.415497819901
 H    0.214481422215   -4.531671686889    0.830232661303
 H   -0.003860715374   -3.870529870461    2.490398353481
 H   -1.161379296141   -3.432786574037    1.187450065541
 C    3.820867071192   -0.573918559876    0.685819256800
 H    4.241244258794   -0.540836328268    1.702868707956
 H    4.450796390265   -1.209734957866    0.044678475132
 H    3.778328019053    0.440955137514    0.270742038213
