27

 P   -2.340106539638    2.668371675000   -1.333578098202
 O   -2.933666539638    3.660171675000   -0.342818098202
 O   -2.620836539638    2.671831675000   -2.829838098202
 O   -0.658606539638    2.505161675000   -1.057458098202
 O   -2.480216539638    1.076821675000   -0.719048098202
 C    0.113343460362    3.656581675000   -1.414708098202
 H   -0.213106539638    4.530101675000   -0.829438098202
 H    0.005243460362    3.868961675000   -2.489608098202
 H    1.162763460362    3.431211675000   -1.186658098202
 C   -3.819486539638    0.572341675000   -0.685038098202
 H   -4.239866539638    0.539261675000   -1.702088098202
 H   -4.449426539638    1.208161675000   -0.043898098202
 H   -3.776946539638   -0.442538325000   -0.269958098202
LI   -0.589436539638    0.672121675000   -0.335908098202
 P    2.373190424212   -2.706095851196    1.352430676681
 O    0.691688947938   -2.542884675799    1.076310032913
 O    2.513298851010   -1.114550925749    0.737900079295
 O    2.966750181174   -3.697895955334    0.361673724676
 O    2.653925723426   -2.709554792878    2.848698230261
 C   -0.080261629130   -3.694304726929    1.433564765591
 H    0.246184550314   -4.567822057586    0.848299606993
 H    0.027842412725   -3.906680241158    2.508465299171
 H   -1.129676168042   -3.468936944734    1.205517011231
 C    3.852570199291   -0.610068930573    0.703886202490
 H    4.272947386893   -0.576986698965    1.720935653646
 H    4.482499518364   -1.245885328563    0.062745420821
 H    3.810031147153    0.404804766817    0.288808983903
