27

 P   -2.460179607562    2.805288319395   -1.402005213350
 O   -3.053739607562    3.797088319395   -0.411245213350
 O   -2.740909607562    2.808748319395   -2.898265213350
 O   -0.778679607562    2.642078319395   -1.125885213350
 O   -2.600289607562    1.213738319395   -0.787475213350
 C   -0.006729607562    3.793498319395   -1.483135213350
 H   -0.333179607562    4.667018319395   -0.897865213350
 H   -0.114829607562    4.005878319395   -2.558035213350
 H    1.042690392438    3.568128319395   -1.255085213350
 C   -3.939559607562    0.709258319395   -0.753465213350
 H   -4.359939607562    0.676178319395   -1.770515213350
 H   -4.569499607562    1.345078319395   -0.112325213350
 H   -3.897019607562   -0.305621680605   -0.338385213350
LI   -0.709509607562    0.809038319395   -0.404335213350
 P    2.500002936609   -2.850697333984    1.424698459440
 O    0.818501460335   -2.687486158587    1.148577815672
 O    2.640111363407   -1.259152408537    0.810167862054
 O    3.093562693571   -3.842497438122    0.433941507435
 O    2.780738235822   -2.854156275666    2.920966013021
 C    0.046550883267   -3.838906209716    1.505832548350
 H    0.372997062711   -4.712423540373    0.920567389752
 H    0.154654925122   -4.051281723946    2.580733081930
 H   -1.002863655645   -3.613538427522    1.277784793990
 C    3.979382711688   -0.754670413360    0.776153985249
 H    4.399759899290   -0.721588181752    1.793203436405
 H    4.609312030761   -1.390486811351    0.135013203580
 H    3.936843659549    0.260203284029    0.361076766662
