27

 P   -2.580252675486    2.942204963791   -1.470432328497
 O   -3.173812675486    3.934004963791   -0.479672328497
 O   -2.860982675486    2.945664963791   -2.966692328497
 O   -0.898752675486    2.778994963791   -1.194312328497
 O   -2.720362675486    1.350654963791   -0.855902328497
 C   -0.126802675486    3.930414963791   -1.551562328497
 H   -0.453252675486    4.803934963791   -0.966292328497
 H   -0.234902675486    4.142794963791   -2.626462328497
 H    0.922617324514    3.705044963791   -1.323512328497
 C   -4.059632675486    0.846174963791   -0.821892328497
 H   -4.480012675486    0.813094963791   -1.838942328497
 H   -4.689572675486    1.481994963791   -0.180752328497
 H   -4.017092675486   -0.168705036209   -0.406812328497
LI   -0.829582675486    0.945954963791   -0.472762328497
 P    2.626815449006   -2.995298816771    1.496966242199
 O    0.945313972732   -2.832087641375    1.220845598431
 O    2.766923875803   -1.403753891324    0.882435644813
 O    3.220375205967   -3.987098920910    0.506209290194
 O    2.907550748219   -2.998757758454    2.993233795780
 C    0.173363395664   -3.983507692504    1.578100331109
 H    0.499809575107   -4.857025023161    0.992835172511
 H    0.281467437518   -4.195883206734    2.653000864689
 H   -0.876051143248   -3.758139910309    1.350052576749
 C    4.106195224085   -0.899271896148    0.848421768008
 H    4.526572411686   -0.866189664540    1.865471219164
 H    4.736124543158   -1.535088294138    0.207280986340
 H    4.063656171946    0.115601801241    0.433344549421
