27

 P   -2.610270942467    2.976434124889   -1.487539107284
 O   -3.203830942467    3.968234124889   -0.496779107284
 O   -2.891000942467    2.979894124889   -2.983799107284
 O   -0.928770942467    2.813224124889   -1.211419107284
 O   -2.750380942467    1.384884124889   -0.873009107284
 C   -0.156820942467    3.964644124889   -1.568669107284
 H   -0.483270942467    4.838164124889   -0.983399107284
 H   -0.264920942467    4.177024124889   -2.643569107284
 H    0.892599057533    3.739274124889   -1.340619107284
 C   -4.089650942467    0.880404124889   -0.838999107284
 H   -4.510030942467    0.847324124889   -1.856049107284
 H   -4.719590942467    1.516224124889   -0.197859107284
 H   -4.047110942467   -0.134475875111   -0.423919107284
LI   -0.859600942467    0.980184124889   -0.489869107284
 P    2.658518577105   -3.031449187468    1.515033187889
 O    0.977017100831   -2.868238012072    1.238912544121
 O    2.798627003903   -1.439904262021    0.900502590503
 O    3.252078334067   -4.023249291607    0.524276235884
 O    2.939253876318   -3.034908129151    3.011300741469
 C    0.205066523763   -4.019658063201    1.596167276799
 H    0.531512703207   -4.893175393858    1.010902118201
 H    0.313170565618   -4.232033577431    2.671067810379
 H   -0.844348015149   -3.794290281006    1.368119522439
 C    4.137898352184   -0.935422266845    0.866488713698
 H    4.558275539786   -0.902340035237    1.883538164854
 H    4.767827671257   -1.571238664835    0.225347932029
 H    4.095359300045    0.079451430544    0.451411495111
