27

 P   -2.700325743410    3.079121608186   -1.538859443645
 O   -3.293885743410    4.070921608186   -0.548099443645
 O   -2.981055743410    3.082581608186   -3.035119443645
 O   -1.018825743410    2.915911608186   -1.262739443645
 O   -2.840435743410    1.487571608186   -0.924329443645
 C   -0.246875743410    4.067331608186   -1.619989443645
 H   -0.573325743410    4.940851608186   -1.034719443645
 H   -0.354975743410    4.279711608186   -2.694889443645
 H    0.802544256590    3.841961608186   -1.391939443645
 C   -4.179705743410    0.983091608186   -0.890319443645
 H   -4.600085743410    0.950011608186   -1.907369443645
 H   -4.809645743410    1.618911608186   -0.249179443645
 H   -4.137165743410   -0.031788391814   -0.475239443645
LI   -0.949655743410    1.082871608186   -0.541189443645
 P    2.753627961402   -3.139900299559    1.569234024958
 O    1.072126485129   -2.976689124162    1.293113381190
 O    2.893736388200   -1.548355374112    0.954703427572
 O    3.347187718364   -4.131700403698    0.578477072953
 O    3.034363260616   -3.143359241241    3.065501578539
 C    0.300175908060   -4.128109175292    1.650368113868
 H    0.626622087504   -5.001626505949    1.065102955271
 H    0.408279949915   -4.340484689522    2.725268647448
 H   -0.749238630852   -3.902741393097    1.422320359508
 C    4.233007736482   -1.043873378936    0.920689550767
 H    4.653384924083   -1.010791147328    1.937739001923
 H    4.862937055555   -1.679689776926    0.279548769099
 H    4.190468684343   -0.028999681546    0.505612332180
