27

 P   -2.760362277372    3.147579930383   -1.573073001219
 O   -3.353922277372    4.139379930383   -0.582313001219
 O   -3.041092277372    3.151039930383   -3.069333001219
 O   -1.078862277372    2.984369930383   -1.296953001219
 O   -2.900472277372    1.556029930383   -0.958543001219
 C   -0.306912277372    4.135789930383   -1.654203001219
 H   -0.633362277372    5.009309930383   -1.068933001219
 H   -0.415012277372    4.348169930383   -2.729103001219
 H    0.742507722628    3.910419930383   -1.426153001219
 C   -4.239742277372    1.051549930383   -0.924533001219
 H   -4.660122277372    1.018469930383   -1.941583001219
 H   -4.869682277372    1.687369930383   -0.283393001219
 H   -4.197202277372    0.036669930383   -0.509453001219
LI   -1.009692277372    1.151329930383   -0.575403001219
 P    2.817034217601   -3.212201040953    1.605367916338
 O    1.135532741327   -3.048989865556    1.329247272570
 O    2.957142644399   -1.620656115506    0.990837318952
 O    3.410593974563   -4.204001145091    0.614610964333
 O    3.097769516814   -3.215659982635    3.101635469918
 C    0.363582164259   -4.200409916686    1.686502005248
 H    0.690028343703   -5.073927247343    1.101236846650
 H    0.471686206114   -4.412785430915    2.761402538828
 H   -0.685832374653   -3.975042134491    1.458454250888
 C    4.296413992680   -1.116174120330    0.956823442147
 H    4.716791180281   -1.083091888722    1.973872893303
 H    4.926343311753   -1.751990518320    0.315682660478
 H    4.253874940541   -0.101300422940    0.541746223560
