27

 P   -2.910453612277    3.318725735877   -1.658606895154
 O   -3.504013612277    4.310525735877   -0.667846895154
 O   -3.191183612277    3.322185735877   -3.154866895154
 O   -1.228953612277    3.155515735877   -1.382486895154
 O   -3.050563612277    1.727175735877   -1.044076895154
 C   -0.457003612277    4.306935735877   -1.739736895154
 H   -0.783453612277    5.180455735877   -1.154466895154
 H   -0.565103612277    4.519315735877   -2.814636895154
 H    0.592416387723    4.081565735877   -1.511686895154
 C   -4.389833612277    1.222695735877   -1.010066895154
 H   -4.810213612277    1.189615735877   -2.027116895154
 H   -5.019773612277    1.858515735877   -0.368926895154
 H   -4.347293612277    0.207815735877   -0.594986895154
LI   -1.159783612277    1.322475735877   -0.660936895154
 P    2.975549858097   -3.392952894438    1.695702644787
 O    1.294048381823   -3.229741719041    1.419582001019
 O    3.115658284895   -1.801407968991    1.081172047400
 O    3.569109615059   -4.384752998576    0.704945692782
 O    3.256285157310   -3.396411836120    3.191970198367
 C    0.522097804755   -4.381161770171    1.776836733697
 H    0.848543984198   -5.254679100828    1.191571575099
 H    0.630201846609   -4.593537284400    2.851737267277
 H   -0.527316734157   -4.155793987976    1.548788979337
 C    4.454929633176   -1.296925973814    1.047158170596
 H    4.875306820777   -1.263843742206    2.064207621752
 H    5.084858952249   -1.932742371805    0.406017388927
 H    4.412390581037   -0.282052276425    0.632080952009
