27

 P   -2.940471879258    3.352954896976   -1.675713673941
 O   -3.534031879258    4.344754896976   -0.684953673941
 O   -3.221201879258    3.356414896976   -3.171973673941
 O   -1.258971879258    3.189744896976   -1.399593673941
 O   -3.080581879258    1.761404896976   -1.061183673941
 C   -0.487021879258    4.341164896976   -1.756843673941
 H   -0.813471879258    5.214684896976   -1.171573673941
 H   -0.595121879258    4.553544896976   -2.831743673941
 H    0.562398120742    4.115794896976   -1.528793673941
 C   -4.419851879258    1.256924896976   -1.027173673941
 H   -4.840231879258    1.223844896976   -2.044223673941
 H   -5.049791879258    1.892744896976   -0.386033673941
 H   -4.377311879258    0.242044896976   -0.612093673941
LI   -1.189801879258    1.356704896976   -0.678043673941
 P    3.007252986196   -3.429103265135    1.713769590476
 O    1.325751509922   -3.265892089738    1.437648946708
 O    3.147361412994   -1.837558339688    1.099238993090
 O    3.600812743158   -4.420903369273    0.723012638472
 O    3.287988285410   -3.432562206817    3.210037144057
 C    0.553800932854   -4.417312140867    1.794903679386
 H    0.880247112298   -5.290829471524    1.209638520789
 H    0.661904974709   -4.629687655097    2.869804212966
 H   -0.495613606058   -4.191944358673    1.566855925026
 C    4.486632761275   -1.333076344511    1.065225116286
 H    4.907009948877   -1.299994112903    2.082274567441
 H    5.116562080348   -1.968892742502    0.424084334617
 H    4.444093709136   -0.318202647122    0.650147897698
