27

 P   -3.090563214163    3.524100702470   -1.761247567876
 O   -3.684123214163    4.515900702470   -0.770487567876
 O   -3.371293214163    3.527560702470   -3.257507567876
 O   -1.409063214163    3.360890702470   -1.485127567876
 O   -3.230673214163    1.932550702470   -1.146717567876
 C   -0.637113214163    4.512310702470   -1.842377567876
 H   -0.963563214163    5.385830702470   -1.257107567876
 H   -0.745213214163    4.724690702470   -2.917277567876
 H    0.412306785837    4.286940702470   -1.614327567876
 C   -4.569943214163    1.428070702470   -1.112707567876
 H   -4.990323214163    1.394990702470   -2.129757567876
 H   -5.199883214163    2.063890702470   -0.471567567876
 H   -4.527403214163    0.413190702470   -0.697627567876
LI   -1.339893214163    1.527850702470   -0.763577567876
 P    3.165768626692   -3.609855118619    1.804104318925
 O    1.484267150418   -3.446643943223    1.527983675157
 O    3.305877053490   -2.018310193172    1.189573721539
 O    3.759328383654   -4.601655222758    0.813347366920
 O    3.446503925905   -3.613314060302    3.300371872506
 C    0.712316573350   -4.598063994352    1.885238407835
 H    1.038762752794   -5.471581325009    1.299973249238
 H    0.820420615205   -4.810439508582    2.960138941415
 H   -0.337097965562   -4.372696212157    1.657190653475
 C    4.645148401771   -1.513828197996    1.155559844735
 H    5.065525589373   -1.480745966388    2.172609295890
 H    5.275077720844   -2.149644595986    0.514419063066
 H    4.602609349632   -0.498954500607    0.740482626147
