27

 P   -3.180618015106    3.626788185767   -1.812567904236
 O   -3.774178015106    4.618588185767   -0.821807904236
 O   -3.461348015106    3.630248185767   -3.308827904236
 O   -1.499118015106    3.463578185767   -1.536447904236
 O   -3.320728015106    2.035238185767   -1.198037904236
 C   -0.727168015106    4.614998185767   -1.893697904236
 H   -1.053618015106    5.488518185767   -1.308427904236
 H   -0.835268015106    4.827378185767   -2.968597904236
 H    0.322251984894    4.389628185767   -1.665647904236
 C   -4.659998015106    1.530758185767   -1.164027904236
 H   -5.080378015106    1.497678185767   -2.181077904236
 H   -5.289938015106    2.166578185767   -0.522887904236
 H   -4.617458015106    0.515878185767   -0.748947904236
LI   -1.429948015106    1.630538185767   -0.814897904236
 P    3.260878010989   -3.718306230710    1.858305155995
 O    1.579376534716   -3.555095055313    1.582184512227
 O    3.400986437787   -2.126761305263    1.243774558608
 O    3.854437767951   -4.710106334849    0.867548203990
 O    3.541613310203   -3.721765172392    3.354572709575
 C    0.807425957647   -4.706515106443    1.939439244905
 H    1.133872137091   -5.580032437100    1.354174086307
 H    0.915529999502   -4.918890620673    3.014339778485
 H   -0.241988581265   -4.481147324248    1.711391490545
 C    4.740257786069   -1.622279310087    1.209760681804
 H    5.160634973670   -1.589197078479    2.226810132960
 H    5.370187105142   -2.258095708077    0.568619900135
 H    4.697718733930   -0.607405612697    0.794683463217
