27

 P   -3.240654549068    3.695246507964   -1.846781461810
 O   -3.834214549068    4.687046507964   -0.856021461810
 O   -3.521384549068    3.698706507964   -3.343041461810
 O   -1.559154549068    3.532036507964   -1.570661461810
 O   -3.380764549068    2.103696507964   -1.232251461810
 C   -0.787204549068    4.683456507964   -1.927911461810
 H   -1.113654549068    5.556976507964   -1.342641461810
 H   -0.895304549068    4.895836507964   -3.002811461810
 H    0.262215450932    4.458086507964   -1.699861461810
 C   -4.720034549068    1.599216507964   -1.198241461810
 H   -5.140414549068    1.566136507964   -2.215291461810
 H   -5.349974549068    2.235036507964   -0.557101461810
 H   -4.677494549068    0.584336507964   -0.783161461810
LI   -1.489984549068    1.698996507964   -0.849111461810
 P    3.324284267188   -3.790606972104    1.894439047374
 O    1.642782790914   -3.627395796707    1.618318403606
 O    3.464392693986   -2.199062046657    1.279908449988
 O    3.917844024150   -4.782407076242    0.903682095369
 O    3.605019566401   -3.794065913786    3.390706600955
 C    0.870832213846   -4.778815847837    1.975573136284
 H    1.197278393290   -5.652333178494    1.390307977687
 H    0.978936255701   -4.991191362066    3.050473669864
 H   -0.178582325066   -4.553448065642    1.747525381924
 C    4.803664042267   -1.694580051481    1.245894573183
 H    5.224041229869   -1.661497819873    2.262944024339
 H    5.433593361340   -2.330396449471    0.604753791515
 H    4.761124990128   -0.679706354091    0.830817354596
