27

 P   -3.270672816049    3.729475669063   -1.863888240597
 O   -3.864232816049    4.721275669063   -0.873128240597
 O   -3.551402816049    3.732935669063   -3.360148240597
 O   -1.589172816049    3.566265669063   -1.587768240597
 O   -3.410782816049    2.137925669063   -1.249358240597
 C   -0.817222816049    4.717685669063   -1.945018240597
 H   -1.143672816049    5.591205669063   -1.359748240597
 H   -0.925322816049    4.930065669063   -3.019918240597
 H    0.232197183951    4.492315669063   -1.716968240597
 C   -4.750052816049    1.633445669063   -1.215348240597
 H   -5.170432816049    1.600365669063   -2.232398240597
 H   -5.379992816049    2.269265669063   -0.574208240597
 H   -4.707512816049    0.618565669063   -0.800268240597
LI   -1.520002816049    1.733225669063   -0.866218240597
 P    3.355987395287   -3.826757342801    1.912505993064
 O    1.674485919013   -3.663546167404    1.636385349296
 O    3.496095822085   -2.235212417354    1.297975395678
 O    3.949547152249   -4.818557446939    0.921749041059
 O    3.636722694501   -3.830216284483    3.408773546645
 C    0.902535341945   -4.814966218534    1.993640081974
 H    1.228981521389   -5.688483549191    1.408374923376
 H    1.010639383800   -5.027341732763    3.068540615554
 H   -0.146879196967   -4.589598436339    1.765592327614
 C    4.835367170366   -1.730730422178    1.263961518873
 H    5.255744357968   -1.697648190570    2.281010970029
 H    5.465296489439   -2.366546820168    0.622820737204
 H    4.792828118228   -0.715856724788    0.848884300286
