27

 P   -3.390745883973    3.866392313458   -1.932315355745
 O   -3.984305883973    4.858192313458   -0.941555355745
 O   -3.671475883973    3.869852313458   -3.428575355745
 O   -1.709245883973    3.703182313458   -1.656195355745
 O   -3.530855883973    2.274842313458   -1.317785355745
 C   -0.937295883973    4.854602313458   -2.013445355745
 H   -1.263745883973    5.728122313458   -1.428175355745
 H   -1.045395883973    5.066982313458   -3.088345355745
 H    0.112124116027    4.629232313458   -1.785395355745
 C   -4.870125883973    1.770362313458   -1.283775355745
 H   -5.290505883973    1.737282313458   -2.300825355745
 H   -5.500065883973    2.406182313458   -0.642635355745
 H   -4.827585883973    0.755482313458   -0.868695355745
LI   -1.640075883973    1.870142313458   -0.934645355745
 P    3.482799907684   -3.971358825589    1.984773775823
 O    1.801298431410   -3.808147650192    1.708653132055
 O    3.622908334482   -2.379813900142    1.370243178437
 O    4.076359664646   -4.963158929727    0.994016823818
 O    3.763535206897   -3.974817767271    3.481041329404
 C    1.029347854342   -4.959567701322    2.065907864733
 H    1.355794033786   -5.833085031979    1.480642706135
 H    1.137451896197   -5.171943215551    3.140808398313
 H   -0.020066684570   -4.734199919127    1.837860110373
 C    4.962179682763   -1.875331904965    1.336229301632
 H    5.382556870364   -1.842249673357    2.353278752788
 H    5.592109001836   -2.511148302956    0.695088519963
 H    4.919640630624   -0.860458207576    0.921152083045
