27

 P   -3.480800684916    3.969079796755   -1.983635692106
 O   -4.074360684916    4.960879796755   -0.992875692106
 O   -3.761530684916    3.972539796755   -3.479895692106
 O   -1.799300684916    3.805869796755   -1.707515692106
 O   -3.620910684916    2.377529796755   -1.369105692106
 C   -1.027350684916    4.957289796755   -2.064765692106
 H   -1.353800684916    5.830809796755   -1.479495692106
 H   -1.135450684916    5.169669796755   -3.139665692106
 H    0.022069315084    4.731919796755   -1.836715692106
 C   -4.960180684916    1.873049796755   -1.335095692106
 H   -5.380560684916    1.839969796755   -2.352145692106
 H   -5.590120684916    2.508869796755   -0.693955692106
 H   -4.917640684916    0.858169796755   -0.920015692106
LI   -1.730130684916    1.972829796755   -0.985965692106
 P    3.577909291981   -4.079809937679    2.038974612892
 O    1.896407815707   -3.916598762283    1.762853969124
 O    3.718017718779   -2.488265012232    1.424444015506
 O    4.171469048943   -5.071610041818    1.048217660888
 O    3.858644591195   -4.083268879362    3.535242166473
 C    1.124457238639   -5.068018813412    2.120108701802
 H    1.450903418083   -5.941536144069    1.534843543205
 H    1.232561280494   -5.280394327642    3.195009235382
 H    0.075042699727   -4.842651031218    1.892060947442
 C    5.057289067061   -1.983783017056    1.390430138702
 H    5.477666254662   -1.950700785448    2.407479589857
 H    5.687218386134   -2.619599415046    0.749289357033
 H    5.014750014922   -0.968909319667    0.975352920114
