27

 P   -3.510818951897    4.003308957854   -2.000742470893
 O   -4.104378951897    4.995108957854   -1.009982470893
 O   -3.791548951897    4.006768957854   -3.497002470893
 O   -1.829318951897    3.840098957854   -1.724622470893
 O   -3.650928951897    2.411758957854   -1.386212470893
 C   -1.057368951897    4.991518957854   -2.081872470893
 H   -1.383818951897    5.865038957854   -1.496602470893
 H   -1.165468951897    5.203898957854   -3.156772470893
 H   -0.007948951897    4.766148957854   -1.853822470893
 C   -4.990198951897    1.907278957854   -1.352202470893
 H   -5.410578951897    1.874198957854   -2.369252470893
 H   -5.620138951897    2.543098957854   -0.711062470893
 H   -4.947658951897    0.892398957854   -0.937122470893
LI   -1.760148951897    2.007058957854   -1.003072470893
 P    3.609612420080   -4.115960308376    2.057041558582
 O    1.928110943807   -3.952749132980    1.780920914814
 O    3.749720846878   -2.524415382929    1.442510961196
 O    4.203172177042   -5.107760412515    1.066284606577
 O    3.890347719294   -4.119419250059    3.553309112163
 C    1.156160366738   -5.104169184109    2.138175647492
 H    1.482606546182   -5.977686514766    1.552910488894
 H    1.264264408593   -5.316544698339    3.213076181072
 H    0.106745827826   -4.878801401915    1.910127893132
 C    5.088992195160   -2.019933387753    1.408497084391
 H    5.509369382761   -1.986851156145    2.425546535547
 H    5.718921514233   -2.655749785743    0.767356302723
 H    5.046453143021   -1.005059690364    0.993419865804
