27

 P   -3.600873752841    4.105996441150   -2.052062807254
 O   -4.194433752841    5.097796441150   -1.061302807254
 O   -3.881603752841    4.109456441150   -3.548322807254
 O   -1.919373752841    3.942786441150   -1.775942807254
 O   -3.740983752841    2.514446441150   -1.437532807254
 C   -1.147423752841    5.094206441150   -2.133192807254
 H   -1.473873752841    5.967726441150   -1.547922807254
 H   -1.255523752841    5.306586441150   -3.208092807254
 H   -0.098003752841    4.868836441150   -1.905142807254
 C   -5.080253752841    2.009966441150   -1.403522807254
 H   -5.500633752841    1.976886441150   -2.420572807254
 H   -5.710193752841    2.645786441150   -0.762382807254
 H   -5.037713752841    0.995086441150   -0.988442807254
LI   -1.850203752841    2.109746441150   -1.054392807254
 P    3.704721804378   -4.224411420467    2.111242395652
 O    2.023220328104   -4.061200245071    1.835121751883
 O    3.844830231176   -2.632866495020    1.496711798265
 O    4.298281561340   -5.216211524606    1.120485443647
 O    3.985457103592   -4.227870362149    3.607509949232
 C    1.251269751036   -5.212620296200    2.192376484562
 H    1.577715930480   -6.086137626857    1.607111325964
 H    1.359373792891   -5.424995810430    3.267277018141
 H    0.201855212124   -4.987252514005    1.964328730201
 C    5.184101579457   -2.128384499844    1.462697921461
 H    5.604478767059   -2.095302268236    2.479747372616
 H    5.814030898530   -2.764200897834    0.821557139792
 H    5.141562527319   -1.113510802455    1.047620702873
