27

 P   -3.690928553784    4.208683924446   -2.103383143615
 O   -4.284488553784    5.200483924446   -1.112623143615
 O   -3.971658553784    4.212143924446   -3.599643143615
 O   -2.009428553784    4.045473924446   -1.827263143615
 O   -3.831038553784    2.617133924446   -1.488853143615
 C   -1.237478553784    5.196893924446   -2.184513143615
 H   -1.563928553784    6.070413924446   -1.599243143615
 H   -1.345578553784    5.409273924446   -3.259413143615
 H   -0.188058553784    4.971523924446   -1.956463143615
 C   -5.170308553784    2.112653924446   -1.454843143615
 H   -5.590688553784    2.079573924446   -2.471893143615
 H   -5.800248553784    2.748473924446   -0.813703143615
 H   -5.127768553784    1.097773924446   -1.039763143615
LI   -1.940258553784    2.212433924446   -1.105713143615
 P    3.799831188676   -4.332862532558    2.165443232721
 O    2.118329712402   -4.169651357161    1.889322588953
 O    3.939939615473   -2.741317607111    1.550912635335
 O    4.393390945637   -5.324662636697    1.174686280716
 O    4.080566487889   -4.336321474240    3.661710786301
 C    1.346379135334   -5.321071408291    2.246577321631
 H    1.672825314777   -6.194588738948    1.661312163033
 H    1.454483177188   -5.533446922521    3.321477855211
 H    0.296964596422   -5.095703626096    2.018529567271
 C    5.279210963755   -2.236835611935    1.516898758530
 H    5.699588151356   -2.203753380327    2.533948209686
 H    5.909140282828   -2.872652009925    0.875757976861
 H    5.236671911616   -1.221961914545    1.101821539943
