27

 P   -3.720946820765    4.242913085545   -2.120489922402
 O   -4.314506820765    5.234713085545   -1.129729922402
 O   -4.001676820765    4.246373085545   -3.616749922402
 O   -2.039446820765    4.079703085545   -1.844369922402
 O   -3.861056820765    2.651363085545   -1.505959922402
 C   -1.267496820765    5.231123085545   -2.201619922402
 H   -1.593946820765    6.104643085545   -1.616349922402
 H   -1.375596820765    5.443503085545   -3.276519922402
 H   -0.218076820765    5.005753085545   -1.973569922402
 C   -5.200326820765    2.146883085545   -1.471949922402
 H   -5.620706820765    2.113803085545   -2.488999922402
 H   -5.830266820765    2.782703085545   -0.830809922402
 H   -5.157786820765    1.132003085545   -1.056869922402
LI   -1.970276820765    2.246663085545   -1.122819922402
 P    3.831534316775   -4.369012903255    2.183510178411
 O    2.150032840501   -4.205801727858    1.907389534643
 O    3.971642743573   -2.777467977808    1.568979581024
 O    4.425094073737   -5.360813007394    1.192753226406
 O    4.112269615988   -4.372471844937    3.679777731991
 C    1.378082263433   -5.357221778988    2.264644267321
 H    1.704528442877   -6.230739109645    1.679379108723
 H    1.486186305288   -5.569597293218    3.339544800901
 H    0.328667724521   -5.131853996793    2.036596512961
 C    5.310914091854   -2.272985982632    1.534965704220
 H    5.731291279456   -2.239903751024    2.552015155376
 H    5.940843410927   -2.908802380622    0.893824922551
 H    5.268375039715   -1.258112285242    1.119888485633
