27

 P   -3.750965087746    4.277142246644   -2.137596701188
 O   -4.344525087746    5.268942246644   -1.146836701188
 O   -4.031695087746    4.280602246644   -3.633856701188
 O   -2.069465087746    4.113932246644   -1.861476701188
 O   -3.891075087746    2.685592246644   -1.523066701188
 C   -1.297515087746    5.265352246644   -2.218726701188
 H   -1.623965087746    6.138872246644   -1.633456701188
 H   -1.405615087746    5.477732246644   -3.293626701188
 H   -0.248095087746    5.039982246644   -1.990676701188
 C   -5.230345087746    2.181112246644   -1.489056701188
 H   -5.650725087746    2.148032246644   -2.506106701188
 H   -5.860285087746    2.816932246644   -0.847916701188
 H   -5.187805087746    1.166232246644   -1.073976701188
LI   -2.000295087746    2.280892246644   -1.139926701188
 P    3.863237444874   -4.405163273952    2.201577124100
 O    2.181735968600   -4.241952098555    1.925456480332
 O    4.003345871672   -2.813618348505    1.587046526714
 O    4.456797201836   -5.396963378090    1.210820172095
 O    4.143972744088   -4.408622215634    3.697844677681
 C    1.409785391532   -5.393372149685    2.282711213010
 H    1.736231570976   -6.266889480342    1.697446054413
 H    1.517889433387   -5.605747663914    3.357611746590
 H    0.360370852620   -5.168004367490    2.054663458650
 C    5.342617219953   -2.309136353329    1.553032649910
 H    5.762994407555   -2.276054121721    2.570082101065
 H    5.972546539026   -2.944952751319    0.911891868241
 H    5.300078167815   -1.294262655939    1.137955431322
