27

 P   -3.871038155670    4.414058891039   -2.206023816336
 O   -4.464598155670    5.405858891039   -1.215263816336
 O   -4.151768155670    4.417518891039   -3.702283816336
 O   -2.189538155670    4.250848891039   -1.929903816336
 O   -4.011148155670    2.822508891039   -1.591493816336
 C   -1.417588155670    5.402268891039   -2.287153816336
 H   -1.744038155670    6.275788891039   -1.701883816336
 H   -1.525688155670    5.614648891039   -3.362053816336
 H   -0.368168155670    5.176898891039   -2.059103816336
 C   -5.350418155670    2.318028891039   -1.557483816336
 H   -5.770798155670    2.284948891039   -2.574533816336
 H   -5.980358155670    2.953848891039   -0.916343816336
 H   -5.307878155670    1.303148891039   -1.142403816336
LI   -2.120368155670    2.417808891039   -1.208353816336
 P    3.990049957271   -4.549764756740    2.273844906860
 O    2.308548480997   -4.386553581343    1.997724263091
 O    4.130158384069   -2.958219831293    1.659314309473
 O    4.583609714233   -5.541564860878    1.283087954855
 O    4.270785256484   -4.553223698422    3.770112460440
 C    1.536597903929   -5.537973632473    2.354978995770
 H    1.863044083373   -6.411490963130    1.769713837172
 H    1.644701945784   -5.750349146702    3.429879529349
 H    0.487183365017   -5.312605850278    2.126931241409
 C    5.469429732350   -2.453737836116    1.625300432669
 H    5.889806919952   -2.420655604508    2.642349883824
 H    6.099359051423   -3.089554234107    0.984159651000
 H    5.426890680211   -1.438864138727    1.210223214081
