12

 C   -0.976598477635    1.777203723095   -0.267184396445
 C    0.135743522365    0.757725723095   -0.267184396445
 O   -0.368587477635   -0.508727276905   -0.267184396445
 C    0.645878522365   -1.542466276905   -0.267184396445
 O    1.333383522365    1.002218723095   -0.267184396445
 H   -0.544028477635    2.784213723095   -0.267184396445
 H   -1.608935477635    1.634631723095    0.621430603555
 H   -1.608935477635    1.634631723095   -1.155799396445
 H    0.091781522365   -2.487590276905   -0.267184396445
 H    1.275673522365   -1.456167276905    0.629005603555
 H    1.275673522365   -1.456167276905   -1.163374396445
NA   -0.520430968021   -0.890029722978    0.860446748498
