12

 C   -0.973600288946    1.784732637756   -0.289449762816
 C    0.138741711054    0.765254637756   -0.289449762816
 O   -0.365589288946   -0.501198362244   -0.289449762816
 C    0.648876711054   -1.534937362244   -0.289449762816
 O    1.336381711054    1.009747637756   -0.289449762816
 H   -0.541030288946    2.791742637756   -0.289449762816
 H   -1.605937288946    1.642160637756    0.599165237184
 H   -1.605937288946    1.642160637756   -1.178064762816
 H    0.094779711054   -2.480061362244   -0.289449762816
 H    1.278671711054   -1.448638362244    0.606740237184
 H    1.278671711054   -1.448638362244   -1.185639762816
NA   -0.530086403531   -0.914276012157    0.932150644206
