12

 C   -0.967603911567    1.799790467079   -0.333980495556
 C    0.144738088433    0.780312467079   -0.333980495556
 O   -0.359592911567   -0.486140532921   -0.333980495556
 C    0.654873088433   -1.519879532921   -0.333980495556
 O    1.342378088433    1.024805467079   -0.333980495556
 H   -0.535033911567    2.806800467079   -0.333980495556
 H   -1.599940911567    1.657218467079    0.554634504444
 H   -1.599940911567    1.657218467079   -1.222595495556
 H    0.100776088433   -2.465003532921   -0.333980495556
 H    1.284668088433   -1.433580532921    0.562209504444
 H    1.284668088433   -1.433580532921   -1.230170495556
NA   -0.549397274550   -0.962768590513    1.075558435623
