12

 C   -0.958609345499    1.822377211063   -0.400776594668
 C    0.153732654501    0.802899211063   -0.400776594668
 O   -0.350598345499   -0.463553788937   -0.400776594668
 C    0.663867654501   -1.497292788937   -0.400776594668
 O    1.351372654501    1.047392211063   -0.400776594668
 H   -0.526039345499    2.829387211063   -0.400776594668
 H   -1.590946345499    1.679805211063    0.487838405332
 H   -1.590946345499    1.679805211063   -1.289391594668
 H    0.109770654501   -2.442416788937   -0.400776594668
 H    1.293662654501   -1.410993788937    0.495413405332
 H    1.293662654501   -1.410993788937   -1.296966594668
NA   -0.578363581079   -1.035507458047    1.290670122747
