12

 C   -0.952612968121    1.837435040386   -0.445307327408
 C    0.159729031879    0.817957040386   -0.445307327408
 O   -0.344601968121   -0.448495959614   -0.445307327408
 C    0.669864031879   -1.482234959614   -0.445307327408
 O    1.357369031879    1.062450040386   -0.445307327408
 H   -0.520042968121    2.844445040386   -0.445307327408
 H   -1.584949968121    1.694863040386    0.443307672592
 H   -1.584949968121    1.694863040386   -1.333922327408
 H    0.115767031879   -2.427358959614   -0.445307327408
 H    1.299659031879   -1.395935959614    0.450882672592
 H    1.299659031879   -1.395935959614   -1.341497327408
NA   -0.597674452098   -1.084000036403    1.434077914163
