12

 C   -0.940620213364    1.867550699031   -0.534368792890
 C    0.171721786636    0.848072699031   -0.534368792890
 O   -0.332609213364   -0.418380300969   -0.534368792890
 C    0.681856786636   -1.452119300969   -0.534368792890
 O    1.369361786636    1.092565699031   -0.534368792890
 H   -0.508050213364    2.874560699031   -0.534368792890
 H   -1.572957213364    1.724978699031    0.354246207110
 H   -1.572957213364    1.724978699031   -1.422983792890
 H    0.127759786636   -2.397243300969   -0.534368792890
 H    1.311651786636   -1.365820300969    0.361821207110
 H    1.311651786636   -1.365820300969   -1.430558792890
NA   -0.636296194137   -1.180985193116    1.720893496996
