12

 C   -0.937622024674    1.875079613693   -0.556634159261
 C    0.174719975326    0.855601613693   -0.556634159261
 O   -0.329611024674   -0.410851386307   -0.556634159261
 C    0.684854975326   -1.444590386307   -0.556634159261
 O    1.372359975326    1.100094613693   -0.556634159261
 H   -0.505052024674    2.882089613693   -0.556634159261
 H   -1.569959024674    1.732507613693    0.331980840739
 H   -1.569959024674    1.732507613693   -1.445249159261
 H    0.130757975326   -2.389714386307   -0.556634159261
 H    1.314649975326   -1.358291386307    0.339555840739
 H    1.314649975326   -1.358291386307   -1.452824159261
NA   -0.645951629647   -1.205231482294    1.792597392704
