12

 C   -0.931625647296    1.890137443015   -0.601164892001
 C    0.180716352704    0.870659443015   -0.601164892001
 O   -0.323614647296   -0.395793556985   -0.601164892001
 C    0.690851352704   -1.429532556985   -0.601164892001
 O    1.378356352704    1.115152443015   -0.601164892001
 H   -0.499055647296    2.897147443015   -0.601164892001
 H   -1.563962647296    1.747565443015    0.287450107999
 H   -1.563962647296    1.747565443015   -1.489779892001
 H    0.136754352704   -2.374656556985   -0.601164892001
 H    1.320646352704   -1.343233556985    0.295025107999
 H    1.320646352704   -1.343233556985   -1.497354892001
NA   -0.665262500666   -1.253724060650    1.936005184121
