12

 C   -0.928627458607    1.897666357677   -0.623430258372
 C    0.183714541393    0.878188357677   -0.623430258372
 O   -0.320616458607   -0.388264642323   -0.623430258372
 C    0.693849541393   -1.422003642323   -0.623430258372
 O    1.381354541393    1.122681357677   -0.623430258372
 H   -0.496057458607    2.904676357677   -0.623430258372
 H   -1.560964458607    1.755094357677    0.265184741628
 H   -1.560964458607    1.755094357677   -1.512045258372
 H    0.139752541393   -2.367127642323   -0.623430258372
 H    1.323644541393   -1.335704642323    0.272759741628
 H    1.323644541393   -1.335704642323   -1.519620258372
NA   -0.674917936175   -1.277970349828    2.007709079829
