12

 C   -0.925629269917    1.905195272338   -0.645695624742
 C    0.186712730083    0.885717272338   -0.645695624742
 O   -0.317618269917   -0.380735727662   -0.645695624742
 C    0.696847730083   -1.414474727662   -0.645695624742
 O    1.384352730083    1.130210272338   -0.645695624742
 H   -0.493059269917    2.912205272338   -0.645695624742
 H   -1.557966269917    1.762623272338    0.242919375258
 H   -1.557966269917    1.762623272338   -1.534310624742
 H    0.142750730083   -2.359598727662   -0.645695624742
 H    1.326642730083   -1.328175727662    0.250494375258
 H    1.326642730083   -1.328175727662   -1.541885624742
NA   -0.684573371685   -1.302216639006    2.079412975537
