12

 C   -0.919632892539    1.920253101661   -0.690226357483
 C    0.192709107461    0.900775101661   -0.690226357483
 O   -0.311621892539   -0.365677898339   -0.690226357483
 C    0.702844107461   -1.399416898339   -0.690226357483
 O    1.390349107461    1.145268101661   -0.690226357483
 H   -0.487062892539    2.927263101661   -0.690226357483
 H   -1.551969892539    1.777681101661    0.198388642517
 H   -1.551969892539    1.777681101661   -1.578841357483
 H    0.148747107461   -2.344540898339   -0.690226357483
 H    1.332639107461   -1.313117898339    0.205963642517
 H    1.332639107461   -1.313117898339   -1.586416357483
NA   -0.703884242704   -1.350709217362    2.222820766953
