12

 C   -0.913636515160    1.935310930983   -0.734757090224
 C    0.198705484840    0.915832930983   -0.734757090224
 O   -0.305625515160   -0.350620069017   -0.734757090224
 C    0.708840484840   -1.384359069017   -0.734757090224
 O    1.396345484840    1.160325930983   -0.734757090224
 H   -0.481066515160    2.942320930983   -0.734757090224
 H   -1.545973515160    1.792738930983    0.153857909776
 H   -1.545973515160    1.792738930983   -1.623372090224
 H    0.154743484840   -2.329483069017   -0.734757090224
 H    1.338635484840   -1.298060069017    0.161432909776
 H    1.338635484840   -1.298060069017   -1.630947090224
NA   -0.723195113724   -1.399201795718    2.366228558370
