12

 C   -0.904641949093    1.957897674967   -0.801553189335
 C    0.207700050907    0.938419674967   -0.801553189335
 O   -0.296630949093   -0.328033325033   -0.801553189335
 C    0.717835050907   -1.361772325033   -0.801553189335
 O    1.405340050907    1.182912674967   -0.801553189335
 H   -0.472071949093    2.964907674967   -0.801553189335
 H   -1.536978949093    1.815325674967    0.087061810665
 H   -1.536978949093    1.815325674967   -1.690168189335
 H    0.163738050907   -2.306896325033   -0.801553189335
 H    1.347630050907   -1.275473325033    0.094636810665
 H    1.347630050907   -1.275473325033   -1.697743189335
NA   -0.752161420253   -1.471940663253    2.581340245494
