12

 C   -0.898645571714    1.972955504290   -0.846083922076
 C    0.213696428286    0.953477504290   -0.846083922076
 O   -0.290634571714   -0.312975495710   -0.846083922076
 C    0.723831428286   -1.346714495710   -0.846083922076
 O    1.411336428286    1.197970504290   -0.846083922076
 H   -0.466075571714    2.979965504290   -0.846083922076
 H   -1.530982571714    1.830383504290    0.042531077924
 H   -1.530982571714    1.830383504290   -1.734698922076
 H    0.169734428286   -2.291838495710   -0.846083922076
 H    1.353626428286   -1.260415495710    0.050106077924
 H    1.353626428286   -1.260415495710   -1.742273922076
NA   -0.771472291272   -1.520433241609    2.724748036910
