12

 C   -0.895647383025    1.980484418952   -0.868349288447
 C    0.216694616975    0.961006418952   -0.868349288447
 O   -0.287636383025   -0.305446581048   -0.868349288447
 C    0.726829616975   -1.339185581048   -0.868349288447
 O    1.414334616975    1.205499418952   -0.868349288447
 H   -0.463077383025    2.987494418952   -0.868349288447
 H   -1.527984383025    1.837912418952    0.020265711553
 H   -1.527984383025    1.837912418952   -1.756964288447
 H    0.172732616975   -2.284309581048   -0.868349288447
 H    1.356624616975   -1.252886581048    0.027840711553
 H    1.356624616975   -1.252886581048   -1.764539288447
NA   -0.781127726781   -1.544679530787    2.796451932619
