12

 C   -0.892649194336    1.988013333613   -0.890614654817
 C    0.219692805664    0.968535333613   -0.890614654817
 O   -0.284638194336   -0.297917666387   -0.890614654817
 C    0.729827805664   -1.331656666387   -0.890614654817
 O    1.417332805664    1.213028333613   -0.890614654817
 H   -0.460079194336    2.995023333613   -0.890614654817
 H   -1.524986194336    1.845441333613   -0.001999654817
 H   -1.524986194336    1.845441333613   -1.779229654817
 H    0.175730805664   -2.276780666387   -0.890614654817
 H    1.359622805664   -1.245357666387    0.005575345183
 H    1.359622805664   -1.245357666387   -1.786804654817
NA   -0.790783162291   -1.568925819965    2.868155828327
