12

 C   -0.886652816957    2.003071162936   -0.935145387558
 C    0.225689183043    0.983593162936   -0.935145387558
 O   -0.278641816957   -0.282859837064   -0.935145387558
 C    0.735824183043   -1.316598837064   -0.935145387558
 O    1.423329183043    1.228086162936   -0.935145387558
 H   -0.454082816957    3.010081162936   -0.935145387558
 H   -1.518989816957    1.860499162936   -0.046530387558
 H   -1.518989816957    1.860499162936   -1.823760387558
 H    0.181727183043   -2.261722837064   -0.935145387558
 H    1.365619183043   -1.230299837064   -0.038955387558
 H    1.365619183043   -1.230299837064   -1.831335387558
NA   -0.810094033310   -1.617418398321    3.011563619743
