12

 C   -0.883654628268    2.010600077597   -0.957410753928
 C    0.228687371732    0.991122077597   -0.957410753928
 O   -0.275643628268   -0.275330922403   -0.957410753928
 C    0.738822371732   -1.309069922403   -0.957410753928
 O    1.426327371732    1.235615077597   -0.957410753928
 H   -0.451084628268    3.017610077597   -0.957410753928
 H   -1.515991628268    1.868028077597   -0.068795753928
 H   -1.515991628268    1.868028077597   -1.846025753928
 H    0.184725371732   -2.254193922403   -0.957410753928
 H    1.368617371732   -1.222770922403   -0.061220753928
 H    1.368617371732   -1.222770922403   -1.853600753928
NA   -0.819749468820   -1.641664687499    3.083267515451
