12

 C   -0.880656439579    2.018128992258   -0.979676120299
 C    0.231685560421    0.998650992258   -0.979676120299
 O   -0.272645439579   -0.267802007742   -0.979676120299
 C    0.741820560421   -1.301541007742   -0.979676120299
 O    1.429325560421    1.243143992258   -0.979676120299
 H   -0.448086439579    3.025138992258   -0.979676120299
 H   -1.512993439579    1.875556992258   -0.091061120299
 H   -1.512993439579    1.875556992258   -1.868291120299
 H    0.187723560421   -2.246665007742   -0.979676120299
 H    1.371615560421   -1.215242007742   -0.083486120299
 H    1.371615560421   -1.215242007742   -1.875866120299
NA   -0.829404904330   -1.665910976677    3.154971411159
