12

 C   -0.877658250889    2.025657906920   -1.001941486669
 C    0.234683749111    1.006179906920   -1.001941486669
 O   -0.269647250889   -0.260273093080   -1.001941486669
 C    0.744818749111   -1.294012093080   -1.001941486669
 O    1.432323749111    1.250672906920   -1.001941486669
 H   -0.445088250889    3.032667906920   -1.001941486669
 H   -1.509995250889    1.883085906920   -0.113326486669
 H   -1.509995250889    1.883085906920   -1.890556486669
 H    0.190721749111   -2.239136093080   -1.001941486669
 H    1.374613749111   -1.207713093080   -0.105751486669
 H    1.374613749111   -1.207713093080   -1.898131486669
NA   -0.839060339839   -1.690157265855    3.226675306868
