12

 C   -0.853672741375    2.085889224211   -1.180064417632
 C    0.258669258625    1.066411224211   -1.180064417632
 O   -0.245661741375   -0.200041775789   -1.180064417632
 C    0.768804258625   -1.233780775789   -1.180064417632
 O    1.456309258625    1.310904224211   -1.180064417632
 H   -0.421102741375    3.092899224211   -1.180064417632
 H   -1.486009741375    1.943317224211   -0.291449417632
 H   -1.486009741375    1.943317224211   -2.068679417632
 H    0.214707258625   -2.178904775789   -1.180064417632
 H    1.398599258625   -1.147481775789   -0.283874417632
 H    1.398599258625   -1.147481775789   -2.076254417632
NA   -0.916303823916   -1.884127579280    3.800306472533
