12

 C   -0.847676363997    2.100947053533   -1.224595150373
 C    0.264665636003    1.081469053533   -1.224595150373
 O   -0.239665363997   -0.184983946467   -1.224595150373
 C    0.774800636003   -1.218722946467   -1.224595150373
 O    1.462305636003    1.325962053533   -1.224595150373
 H   -0.415106363997    3.107957053533   -1.224595150373
 H   -1.480013363997    1.958375053533   -0.335980150373
 H   -1.480013363997    1.958375053533   -2.113210150373
 H    0.220703636003   -2.163846946467   -1.224595150373
 H    1.404595636003   -1.132423946467   -0.328405150373
 H    1.404595636003   -1.132423946467   -2.120785150373
NA   -0.935614694935   -1.932620157636    3.943714263949
