12

 C   -0.841679986618    2.116004882856   -1.269125883114
 C    0.270662013382    1.096526882856   -1.269125883114
 O   -0.233668986618   -0.169926117144   -1.269125883114
 C    0.780797013382   -1.203665117144   -1.269125883114
 O    1.468302013382    1.341019882856   -1.269125883114
 H   -0.409109986618    3.123014882856   -1.269125883114
 H   -1.474016986618    1.973432882856   -0.380510883114
 H   -1.474016986618    1.973432882856   -2.157740883114
 H    0.226700013382   -2.148789117144   -1.269125883114
 H    1.410592013382   -1.117366117144   -0.372935883114
 H    1.410592013382   -1.117366117144   -2.165315883114
NA   -0.954925565955   -1.981112735993    4.087122055366
