12

 C   -0.838681797929    2.123533797517   -1.291391249485
 C    0.273660202071    1.104055797517   -1.291391249485
 O   -0.230670797929   -0.162397202483   -1.291391249485
 C    0.783795202071   -1.196136202483   -1.291391249485
 O    1.471300202071    1.348548797517   -1.291391249485
 H   -0.406111797929    3.130543797517   -1.291391249485
 H   -1.471018797929    1.980961797517   -0.402776249485
 H   -1.471018797929    1.980961797517   -2.180006249485
 H    0.229698202071   -2.141260202483   -1.291391249485
 H    1.413590202071   -1.109837202483   -0.395201249485
 H    1.413590202071   -1.109837202483   -2.187581249485
NA   -0.964581001464   -2.005359025171    4.158825951074
