12

 C   -0.829687231861    2.146120541501   -1.358187348596
 C    0.282654768139    1.126642541501   -1.358187348596
 O   -0.221676231861   -0.139810458499   -1.358187348596
 C    0.792789768139   -1.173549458499   -1.358187348596
 O    1.480294768139    1.371135541501   -1.358187348596
 H   -0.397117231861    3.153130541501   -1.358187348596
 H   -1.462024231861    2.003548541501   -0.469572348596
 H   -1.462024231861    2.003548541501   -2.246802348596
 H    0.238692768139   -2.118673458499   -1.358187348596
 H    1.422584768139   -1.087250458499   -0.461997348596
 H    1.422584768139   -1.087250458499   -2.254377348596
NA   -0.993547307993   -2.078097892705    4.373937638198
