12

 C   -0.811698099726    2.191294029469   -1.491779546818
 C    0.300643900274    1.171816029469   -1.491779546818
 O   -0.203687099726   -0.094636970531   -1.491779546818
 C    0.810778900274   -1.128375970531   -1.491779546818
 O    1.498283900274    1.416309029469   -1.491779546818
 H   -0.379128099726    3.198304029469   -1.491779546818
 H   -1.444035099726    2.048722029469   -0.603164546818
 H   -1.444035099726    2.048722029469   -2.380394546818
 H    0.256681900274   -2.073499970531   -1.491779546818
 H    1.440573900274   -1.042076970531   -0.595589546818
 H    1.440573900274   -1.042076970531   -2.387969546818
NA   -1.051479921051   -2.223575627774    4.804161012447
