12

 C   -0.808699911036    2.198822944131   -1.514044913189
 C    0.303642088964    1.179344944131   -1.514044913189
 O   -0.200688911036   -0.087108055869   -1.514044913189
 C    0.813777088964   -1.120847055869   -1.514044913189
 O    1.501282088964    1.423837944131   -1.514044913189
 H   -0.376129911036    3.205832944131   -1.514044913189
 H   -1.441036911036    2.056250944131   -0.625429913189
 H   -1.441036911036    2.056250944131   -2.402659913189
 H    0.259680088964   -2.065971055869   -1.514044913189
 H    1.443572088964   -1.034548055869   -0.617854913189
 H    1.443572088964   -1.034548055869   -2.410234913189
NA   -1.061135356561   -2.247821916952    4.875864908155
