12

 C   -0.805701722347    2.206351858792   -1.536310279559
 C    0.306640277653    1.186873858792   -1.536310279559
 O   -0.197690722347   -0.079579141208   -1.536310279559
 C    0.816775277653   -1.113318141208   -1.536310279559
 O    1.504280277653    1.431366858792   -1.536310279559
 H   -0.373131722347    3.213361858792   -1.536310279559
 H   -1.438038722347    2.063779858792   -0.647695279559
 H   -1.438038722347    2.063779858792   -2.424925279559
 H    0.262678277653   -2.058442141208   -1.536310279559
 H    1.446570277653   -1.027019141208   -0.640120279559
 H    1.446570277653   -1.027019141208   -2.432500279559
NA   -1.070790792070   -2.272068206130    4.947568803864
