12

 C   -0.778718024144    2.274112090744   -1.736698576893
 C    0.333623975856    1.254634090744   -1.736698576893
 O   -0.170707024144   -0.011818909256   -1.736698576893
 C    0.843758975856   -1.045557909256   -1.736698576893
 O    1.531263975856    1.499127090744   -1.736698576893
 H   -0.346148024144    3.281122090744   -1.736698576893
 H   -1.411055024144    2.131540090744   -0.848083576893
 H   -1.411055024144    2.131540090744   -2.625313576893
 H    0.289661975856   -1.990681909256   -1.736698576893
 H    1.473553975856   -0.959258909256   -0.840508576893
 H    1.473553975856   -0.959258909256   -2.632888576893
NA   -1.157689711657   -2.490284808733    5.592903865237
