12

 C   -0.775719835455    2.281641005406   -1.758963943264
 C    0.336622164545    1.262163005406   -1.758963943264
 O   -0.167708835455   -0.004289994594   -1.758963943264
 C    0.846757164545   -1.038028994594   -1.758963943264
 O    1.534262164545    1.506656005406   -1.758963943264
 H   -0.343149835455    3.288651005406   -1.758963943264
 H   -1.408056835455    2.139069005406   -0.870348943264
 H   -1.408056835455    2.139069005406   -2.647578943264
 H    0.292660164545   -1.983152994594   -1.758963943264
 H    1.476552164545   -0.951729994594   -0.862773943264
 H    1.476552164545   -0.951729994594   -2.655153943264
NA   -1.167345147167   -2.514531097911    5.664607760945
