12

 C   -0.772721646765    2.289169920067   -1.781229309634
 C    0.339620353235    1.269691920067   -1.781229309634
 O   -0.164710646765    0.003238920067   -1.781229309634
 C    0.849755353235   -1.030500079933   -1.781229309634
 O    1.537260353235    1.514184920067   -1.781229309634
 H   -0.340151646765    3.296179920067   -1.781229309634
 H   -1.405058646765    2.146597920067   -0.892614309634
 H   -1.405058646765    2.146597920067   -2.669844309634
 H    0.295658353235   -1.975624079933   -1.781229309634
 H    1.479550353235   -0.944201079933   -0.885039309634
 H    1.479550353235   -0.944201079933   -2.677419309634
NA   -1.177000582676   -2.538777387089    5.736311656653
