12

 C   -0.745737948562    2.356930152019   -1.981617606968
 C    0.366604051438    1.337452152019   -1.981617606968
 O   -0.137726948562    0.070999152019   -1.981617606968
 C    0.876739051438   -0.962739847981   -1.981617606968
 O    1.564244051438    1.581945152019   -1.981617606968
 H   -0.313167948562    3.363940152019   -1.981617606968
 H   -1.378074948562    2.214358152019   -1.093002606968
 H   -1.378074948562    2.214358152019   -2.870232606968
 H    0.322642051438   -1.907863847981   -1.981617606968
 H    1.506534051438   -0.876440847981   -1.085427606968
 H    1.506534051438   -0.876440847981   -2.877807606968
NA   -1.263899502263   -2.756993989692    6.381646718027
