12

 C   -0.742739759873    2.364459066681   -2.003882973338
 C    0.369602240127    1.344981066681   -2.003882973338
 O   -0.134728759873    0.078528066681   -2.003882973338
 C    0.879737240127   -0.955210933319   -2.003882973338
 O    1.567242240127    1.589474066681   -2.003882973338
 H   -0.310169759873    3.371469066681   -2.003882973338
 H   -1.375076759873    2.221887066681   -1.115267973338
 H   -1.375076759873    2.221887066681   -2.892497973338
 H    0.325640240127   -1.900334933319   -2.003882973338
 H    1.509532240127   -0.868911933319   -1.107692973338
 H    1.509532240127   -0.868911933319   -2.900072973338
NA   -1.273554937772   -2.781240278870    6.453350613735
