12

 C   -0.733745193805    2.387045810665   -2.070679072449
 C    0.378596806195    1.367567810665   -2.070679072449
 O   -0.125734193805    0.101114810665   -2.070679072449
 C    0.888731806195   -0.932624189335   -2.070679072449
 O    1.576236806195    1.612060810665   -2.070679072449
 H   -0.301175193805    3.394055810665   -2.070679072449
 H   -1.366082193805    2.244473810665   -1.182064072449
 H   -1.366082193805    2.244473810665   -2.959294072449
 H    0.334634806195   -1.877748189335   -2.070679072449
 H    1.518526806195   -0.846325189335   -1.174489072449
 H    1.518526806195   -0.846325189335   -2.966869072449
NA   -1.302521244301   -2.853979146404    6.668462300860
