12

 C   -0.718754250359    2.424690383971   -2.182005904302
 C    0.393587749641    1.405212383971   -2.182005904302
 O   -0.110743250359    0.138759383971   -2.182005904302
 C    0.903722749641   -0.894979616029   -2.182005904302
 O    1.591227749641    1.649705383971   -2.182005904302
 H   -0.286184250359    3.431700383971   -2.182005904302
 H   -1.351091250359    2.282118383971   -1.293390904302
 H   -1.351091250359    2.282118383971   -3.070620904302
 H    0.349625749641   -1.840103616029   -2.182005904302
 H    1.533517749641   -0.808680616029   -1.285815904302
 H    1.533517749641   -0.808680616029   -3.078195904302
NA   -1.350798421850   -2.975210592294    7.026981779400
