16

 C    1.459366384796    0.829085930582    1.723990995793
 H    1.641159288451    0.057310657159    2.481459859961
 H    1.047701719931    1.739917674607    2.174893607827
 H    2.422274995588    1.083112803306    1.255392937415
 C    0.533998668719    0.307096010266    0.651025867852
 O   -0.218942969343    1.111243026518   -0.005373883163
 O    0.509869848733   -0.942855786761    0.365488251159
LI    0.017747090852   -0.277443956320   -1.573179882364
LI   -1.490101187811   -0.562867811901   -0.186826474003
 C   -0.365541560504   -0.207937440400   -0.433210232223
 O   -0.339041857763    1.041594134288   -0.150311920966
 O    0.386853964969   -1.011511086735    0.222711419398
 C   -1.274868787420   -0.728574455010   -1.529242821066
 H   -1.562838051905   -1.767487717633   -1.326678663427
 H   -0.720521743941   -0.705940869392   -2.475544241696
 H   -2.156544846990   -0.084362107307   -1.633823314216
