16

 C    1.512963636380    0.859773137817    1.788592970385
 H    1.694756540035    0.087997864394    2.546061834553
 H    1.101298971515    1.770604881842    2.239495582419
 H    2.475872247172    1.113800010541    1.319994912007
 C    0.587595920303    0.337783217501    0.715627842444
 O   -0.165345717759    1.141930233753    0.059228091429
 O    0.563467100317   -0.912168579526    0.430090225751
LI    0.071344342436   -0.246756749085   -1.508577907772
LI   -1.436503936227   -0.532180604666   -0.122224499411
 C   -0.431883006149   -0.245921359922   -0.513173070974
 O   -0.405383303408    1.003610214767   -0.230274759717
 O    0.320512519324   -1.049495006256    0.142748580647
 C   -1.341210233066   -0.766558374531   -1.609205659817
 H   -1.629179497550   -1.805471637154   -1.406641502179
 H   -0.786863189586   -0.743924788913   -2.555507080448
 H   -2.222886292636   -0.122346026828   -1.713786152967
