16

 C    1.539762262172    0.875116741434    1.820893957681
 H    1.721555165827    0.103341468011    2.578362821849
 H    1.128097597307    1.785948485459    2.271796569715
 H    2.502670872964    1.129143614158    1.352295899303
 C    0.614394546095    0.353126821118    0.747928829740
 O   -0.138547091967    1.157273837370    0.091529078725
 O    0.590265726109   -0.896824975909    0.462391213047
LI    0.098142968228   -0.231413145468   -1.476276920476
LI   -1.409705310435   -0.516837001049   -0.089923512115
 C   -0.465053728972   -0.264913319682   -0.553154490350
 O   -0.438554026231    0.984618255006   -0.270256179093
 O    0.287341796502   -1.068486966017    0.102767161271
 C   -1.374380955888   -0.785550334292   -1.649187079193
 H   -1.662350220372   -1.824463596914   -1.446622921554
 H   -0.820033912408   -0.762916748674   -2.595488499823
 H   -2.256057015458   -0.141337986589   -1.753767572343
