16

 C    3.764048202929    2.148635841661    4.501875903247
 H    3.945841106584    1.376860568238    5.259344767415
 H    3.352383538064    3.059467585686    4.952778515281
 H    4.726956813721    2.402662714385    4.033277844869
 C    2.838680486852    1.626645921345    3.428910775306
 O    2.085738848790    2.430792937597    2.772511024291
 O    2.814551666866    0.376694124318    3.143373158613
LI    2.322428908985    1.042105954759    1.204705025090
LI    0.814580630322    0.756682099178    2.591058433451
 C   -3.218223723247   -1.841245979811   -3.871612298528
 O   -3.191724020506   -0.591714405123   -3.588713987272
 O   -2.465828197774   -2.644819626146   -3.215690646908
 C   -4.127550950163   -2.361882994421   -4.967644887372
 H   -4.415520214648   -3.400796257043   -4.765080729733
 H   -3.573203906683   -2.339249408803   -5.913946308002
 H   -5.009227009733   -1.717670646717   -5.072225380521
