16

 C    3.790846828721    2.163979445278    4.534176890543
 H    3.972639732376    1.392204171855    5.291645754711
 H    3.379182163856    3.074811189303    4.985079502577
 H    4.753755439513    2.418006318002    4.065578832165
 C    2.865479112644    1.641989524962    3.461211762602
 O    2.112537474582    2.446136541214    2.804812011587
 O    2.841350292658    0.392037727935    3.175674145909
LI    2.349227534777    1.057449558376    1.237006012386
LI    0.841379256114    0.772025702795    2.623359420747
 C   -3.251394446069   -1.860237939572   -3.911593717904
 O   -3.224894743329   -0.610706364883   -3.628695406647
 O   -2.498998920596   -2.663811585906   -3.255672066284
 C   -4.160721672986   -2.380874954182   -5.007626306747
 H   -4.448690937470   -3.419788216804   -4.805062149109
 H   -3.606374629506   -2.358241368563   -5.953927727378
 H   -5.042397732556   -1.736662606478   -5.112206799897
