16

 C    3.817645454513    2.179323048895    4.566477877839
 H    3.999438358168    1.407547775472    5.323946742007
 H    3.405980789648    3.090154792920    5.017380489873
 H    4.780554065305    2.433349921619    4.097879819461
 C    2.892277738436    1.657333128579    3.493512749898
 O    2.139336100374    2.461480144831    2.837112998883
 O    2.868148918450    0.407381331552    3.207975133205
LI    2.376026160569    1.072793161993    1.269306999682
LI    0.868177881906    0.787369306412    2.655660408043
 C   -3.284565168892   -1.879229899332   -3.951575137280
 O   -3.258065466151   -0.629698324644   -3.668676826023
 O   -2.532169643419   -2.682803545667   -3.295653485659
 C   -4.193892395809   -2.399866913942   -5.047607726123
 H   -4.481861660293   -3.438780176565   -4.845043568485
 H   -3.639545352329   -2.377233328324   -5.993909146753
 H   -5.075568455379   -1.755654566239   -5.152188219273
