16

 C    3.898041331890    2.225353859746    4.663380839727
 H    4.079834235545    1.453578586323    5.420849703895
 H    3.486376667025    3.136185603771    5.114283451761
 H    4.860949942682    2.479380732470    4.194782781349
 C    2.972673615813    1.703363939430    3.590415711786
 O    2.219731977751    2.507510955682    2.934015960771
 O    2.948544795827    0.453412142403    3.304878095093
LI    2.456422037946    1.118823972844    1.366209961570
LI    0.948573759283    0.833400117263    2.752563369931
 C   -3.384077337360   -1.936205778614   -4.071519395407
 O   -3.357577634619   -0.686674203926   -3.788621084150
 O   -2.631681811887   -2.739779424949   -3.415597743786
 C   -4.293404564276   -2.456842793224   -5.167551984250
 H   -4.581373828761   -3.495756055846   -4.964987826612
 H   -3.739057520796   -2.434209207606   -6.113853404880
 H   -5.175080623846   -1.812630445520   -5.272132477400
