16

 C    3.924839957682    2.240697463364    4.695681827023
 H    4.106632861337    1.468922189941    5.453150691191
 H    3.513175292817    3.151529207389    5.146584439057
 H    4.887748568474    2.494724336088    4.227083768645
 C    2.999472241605    1.718707543048    3.622716699082
 O    2.246530603543    2.522854559300    2.966316948067
 O    2.975343421619    0.468755746021    3.337179082389
LI    2.483220663738    1.134167576462    1.398510948866
LI    0.975372385075    0.848743720881    2.784864357227
 C   -3.417248060182   -1.955197738375   -4.111500814782
 O   -3.390748357442   -0.705666163686   -3.828602503526
 O   -2.664852534709   -2.758771384709   -3.455579163162
 C   -4.326575287099   -2.475834752984   -5.207533403626
 H   -4.614544551583   -3.514748015607   -5.004969245987
 H   -3.772228243619   -2.453201167366   -6.153834824256
 H   -5.208251346669   -1.831622405281   -5.312113896775
