16

 C    3.951638583475    2.256041066981    4.727982814319
 H    4.133431487130    1.484265793558    5.485451678487
 H    3.539973918610    3.166872811006    5.178885426353
 H    4.914547194267    2.510067939705    4.259384755941
 C    3.026270867398    1.734051146665    3.655017686378
 O    2.273329229336    2.538198162917    2.998617935363
 O    3.002142047412    0.484099349638    3.369480069685
LI    2.510019289531    1.149511180079    1.430811936162
LI    1.002171010868    0.864087324498    2.817165344523
 C   -3.450418783005   -1.974189698135   -4.151482234158
 O   -3.423919080264   -0.724658123447   -3.868583922901
 O   -2.698023257532   -2.777763344470   -3.495560582538
 C   -4.359746009922   -2.494826712745   -5.247514823001
 H   -4.647715274406   -3.533739975367   -5.044950665363
 H   -3.805398966442   -2.472193127127   -6.193816243632
 H   -5.241422069492   -1.850614365042   -5.352095316151
