16

 C    3.978437209267    2.271384670598    4.760283801615
 H    4.160230112922    1.499609397175    5.517752665783
 H    3.566772544402    3.182216414623    5.211186413649
 H    4.941345820059    2.525411543322    4.291685743237
 C    3.053069493190    1.749394750282    3.687318673674
 O    2.300127855128    2.553541766534    3.030918922659
 O    3.028940673204    0.499442953255    3.401781056981
LI    2.536817915323    1.164854783696    1.463112923458
LI    1.028969636660    0.879430928115    2.849466331819
 C   -3.483589505828   -1.993181657896   -4.191463653534
 O   -3.457089803087   -0.743650083208   -3.908565342277
 O   -2.731193980354   -2.796755304230   -3.535542001913
 C   -4.392916732744   -2.513818672506   -5.287496242377
 H   -4.680885997228   -3.552731935128   -5.084932084738
 H   -3.838569689264   -2.491185086888   -6.233797663007
 H   -5.274592792314   -1.869606324802   -5.392076735527
