16

 C    1.593359513757    0.905803948668    1.885495932273
 H    1.775152417412    0.134028675245    2.642964796441
 H    1.181694848892    1.816635692693    2.336398544307
 H    2.556268124549    1.159830821392    1.416897873895
 C    0.667991797680    0.383814028352    0.812530804332
 O   -0.084949840382    1.187961044604    0.156131053317
 O    0.643862977694   -0.866137768675    0.526993187639
LI    0.151740219813   -0.200725938234   -1.411674945884
LI   -1.356108058850   -0.486149793815   -0.025321537523
 C   -0.531395174617   -0.302897239203   -0.633117329101
 O   -0.504895471876    0.946634335485   -0.350219017844
 O    0.221000350856   -1.106470885538    0.022804322520
 C   -1.440722401533   -0.823534253813   -1.729149917944
 H   -1.728691666018   -1.862447516436   -1.526585760306
 H   -0.886375358053   -0.800900668195   -2.675451338574
 H   -2.322398461103   -0.179321906110   -1.833730411094
