16

 C    1.620158139549    0.921147552285    1.917796919569
 H    1.801951043204    0.149372278862    2.675265783737
 H    1.208493474684    1.831979296310    2.368699531603
 H    2.583066750341    1.175174425009    1.449198861191
 C    0.694790423472    0.399157631969    0.844831791628
 O   -0.058151214590    1.203304648221    0.188432040613
 O    0.670661603486   -0.850794165058    0.559294174935
LI    0.178538845605   -0.185382334617   -1.379373958588
LI   -1.329309433058   -0.470806190198    0.006979449773
 C   -0.564565897439   -0.321889198964   -0.673098748476
 O   -0.538066194699    0.927642375724   -0.390200437220
 O    0.187829628034   -1.125462845298   -0.017177096856
 C   -1.473893124356   -0.842526213574   -1.769131337320
 H   -1.761862388840   -1.881439476196   -1.566567179681
 H   -0.919546080876   -0.819892627956   -2.715432757950
 H   -2.355569183926   -0.198313865870   -1.873711830470
