16

 C    1.646956765341    0.936491155903    1.950097906865
 H    1.828749668996    0.164715882480    2.707566771033
 H    1.235292100476    1.847322899928    2.401000518899
 H    2.609865376133    1.190518028627    1.481499848487
 C    0.721589049264    0.414501235587    0.877132778924
 O   -0.031352588798    1.218648251839    0.220733027909
 O    0.697460229278   -0.835450561440    0.591595162231
LI    0.205337471397   -0.170038730999   -1.347072971292
LI   -1.302510807266   -0.455462586580    0.039280437069
 C   -0.597736620262   -0.340881158724   -0.713080167852
 O   -0.571236917521    0.908650415964   -0.430181856595
 O    0.154658905211   -1.144454805059   -0.057158516232
 C   -1.507063847179   -0.861518173334   -1.809112756695
 H   -1.795033111663   -1.900431435957   -1.606548599057
 H   -0.952716803699   -0.838884587716   -2.755414177326
 H   -2.388739906749   -0.217305825631   -1.913693249845
