16

 C    1.727352642718    0.982521966754    2.047000868753
 H    1.909145546373    0.210746693331    2.804469732921
 H    1.315687977853    1.893353710779    2.497903480787
 H    2.690261253510    1.236548839478    1.578402810375
 C    0.801984926641    0.460532046438    0.974035740812
 O    0.049043288579    1.264679062690    0.317635989797
 O    0.777856106655   -0.789419750589    0.688498124119
LI    0.285733348774   -0.124007920148   -1.250170009404
LI   -1.222114929889   -0.409431775729    0.136183398957
 C   -0.697248788730   -0.397857038006   -0.833024425979
 O   -0.670749085989    0.851674536682   -0.550126114722
 O    0.055146736743   -1.201430684341   -0.177102774359
 C   -1.606576015646   -0.918494052616   -1.929057014822
 H   -1.894545280131   -1.957407315239   -1.726492857184
 H   -1.052228972166   -0.895860466998   -2.875358435453
 H   -2.488252075216   -0.274281704913   -2.033637507972
