16

 C    1.754151268510    0.997865570371    2.079301856049
 H    1.935944172165    0.226090296948    2.836770720217
 H    1.342486603645    1.908697314396    2.530204468083
 H    2.717059879302    1.251892443095    1.610703797671
 C    0.828783552433    0.475875650055    1.006336728108
 O    0.075841914371    1.280022666307    0.349936977093
 O    0.804654732447   -0.774076146972    0.720799111415
LI    0.312531974566   -0.108664316531   -1.217869022108
LI   -1.195316304097   -0.394088172112    0.168484386253
 C   -0.730419511552   -0.416848997767   -0.873005845355
 O   -0.703919808812    0.832682576921   -0.590107534098
 O    0.021976013921   -1.220422644101   -0.217084193734
 C   -1.639746738469   -0.937486012377   -1.969038434198
 H   -1.927716002953   -1.976399274999   -1.766474276560
 H   -1.085399694989   -0.914852426759   -2.915339854828
 H   -2.521422798039   -0.293273664673   -2.073618927348
