16

 C    1.834547145887    1.043896381223    2.176204817936
 H    2.016340049542    0.272121107800    2.933673682104
 H    1.422882481022    1.954728125248    2.627107429970
 H    2.797455756679    1.297923253947    1.707606759558
 C    0.909179429810    0.521906460907    1.103239689995
 O    0.156237791748    1.326053477159    0.446839938980
 O    0.885050609824   -0.728045336120    0.817702073302
LI    0.392927851943   -0.062633505679   -1.120966060221
LI   -1.114920426720   -0.348057361260    0.265387348140
 C   -0.829931680020   -0.473824877049   -0.992950103482
 O   -0.803431977279    0.775706697640   -0.710051792225
 O   -0.077536154547   -1.277398523383   -0.337028451861
 C   -1.739258906937   -0.994461891658   -2.088982692325
 H   -2.027228171421   -2.033375154281   -1.886418534687
 H   -1.184911863457   -0.971828306040   -3.035284112955
 H   -2.620934966507   -0.350249543955   -2.193563185475
