16

 C    1.914943023264    1.089927192075    2.273107779824
 H    2.096735926919    0.318151918652    3.030576643992
 H    1.503278358399    2.000758936100    2.724010391858
 H    2.877851634056    1.343954064799    1.804509721446
 C    0.989575307187    0.567937271759    1.200142651883
 O    0.236633669125    1.372084288011    0.543742900868
 O    0.965446487201   -0.682014525268    0.914605035190
LI    0.473323729320   -0.016602694827   -1.024063098333
LI   -1.034524549343   -0.302026550408    0.362290310028
 C   -0.929443848488   -0.530800756330   -1.112894361609
 O   -0.902944145747    0.718730818358   -0.829996050352
 O   -0.177048323015   -1.334374402665   -0.456972709988
 C   -1.838771075405   -1.051437770940   -2.208926950452
 H   -2.126740339889   -2.090351033563   -2.006362792814
 H   -1.284424031925   -1.028804185322   -3.155228371082
 H   -2.720447134975   -0.407225423237   -2.313507443602
