16

 C    2.022137526433    1.151301606543    2.402311729008
 H    2.203930430088    0.379526333120    3.159780593176
 H    1.610472861568    2.062133350568    2.853214341042
 H    2.985046137225    1.405328479267    1.933713670630
 C    1.096769810356    0.629311686227    1.329346601067
 O    0.343828172294    1.433458702479    0.672946850052
 O    1.072640990370   -0.620640110800    1.043808984374
LI    0.580518232489    0.044771719641   -0.894859149149
LI   -0.927330046174   -0.240652135940    0.491494259212
 C   -1.062126739778   -0.606768595373   -1.272820039111
 O   -1.035627037038    0.642762979315   -0.989921727854
 O   -0.309731214305   -1.410342241707   -0.616898387491
 C   -1.971453966695   -1.127405609983   -2.368852627954
 H   -2.259423231179   -2.166318872605   -2.166288470316
 H   -1.417106923215   -1.104772024365   -3.315154048585
 H   -2.853130026265   -0.483193262279   -2.473433121104
