16

 C    2.075734778017    1.181988813778    2.466913703600
 H    2.257527681672    0.410213540355    3.224382567768
 H    1.664070113152    2.092820557803    2.917816315634
 H    3.038643388809    1.436015686502    1.998315645222
 C    1.150367061940    0.659998893462    1.393948575659
 O    0.397425423878    1.464145909714    0.737548824644
 O    1.126238241954   -0.589952903565    1.108410958966
LI    0.634115484073    0.075458926876   -0.830257174557
LI   -0.873732794590   -0.209964928705    0.556096233804
 C   -1.128468185424   -0.644752514894   -1.352782877863
 O   -1.101968482683    0.604779059794   -1.069884566606
 O   -0.376072659950   -1.448326161228   -0.696861226242
 C   -2.037795412340   -1.165389529504   -2.448815466706
 H   -2.325764676824   -2.204302792126   -2.246251309067
 H   -1.483448368860   -1.142755943886   -3.395116887336
 H   -2.919471471910   -0.521177181800   -2.553395959856
