16

 C    2.102533403810    1.197332417395    2.499214690896
 H    2.284326307465    0.425557143972    3.256683555064
 H    1.690868738945    2.108164161420    2.950117302930
 H    3.065442014602    1.451359290119    2.030616632518
 C    1.177165687733    0.675342497079    1.426249562955
 O    0.424224049671    1.479489513331    0.769849811940
 O    1.153036867747   -0.574609299948    1.140711946262
LI    0.660914109866    0.090802530493   -0.797956187261
LI   -0.846934168797   -0.194621325088    0.588397221100
 C   -1.161638908246   -0.663744474654   -1.392764297238
 O   -1.135139205505    0.585787100034   -1.109865985981
 O   -0.409243382773   -1.467318120989   -0.736842645618
 C   -2.070966135163   -1.184381489264   -2.488796886081
 H   -2.358935399647   -2.223294751887   -2.286232728443
 H   -1.516619091683   -1.161747903646   -3.435098306712
 H   -2.952642194733   -0.540169141561   -2.593377379231
