16

 C    2.182929281186    1.243363228246    2.596117652784
 H    2.364722184841    0.471587954823    3.353586516952
 H    1.771264616321    2.154194972271    3.047020264818
 H    3.145837891978    1.497390100970    2.127519594406
 C    1.257561565109    0.721373307930    1.523152524843
 O    0.504619927047    1.525520324182    0.866752773828
 O    1.233432745123   -0.528578489097    1.237614908150
LI    0.741309987242    0.136833341344   -0.701053225373
LI   -0.766538291421   -0.148590514237    0.685300182988
 C   -1.261151076714   -0.720720353936   -1.512708555365
 O   -1.234651373973    0.528811220752   -1.229810244108
 O   -0.508755551241   -1.524294000271   -0.856786903745
 C   -2.170478303630   -1.241357368546   -2.608741144208
 H   -2.458447568115   -2.280270631169   -2.406176986570
 H   -1.616131260151   -1.218723782928   -3.555042564839
 H   -3.052154363200   -0.597145020843   -2.713321637358
