16

 C    2.343721035940    1.335424849950    2.789923576560
 H    2.525513939595    0.563649576527    3.547392440728
 H    1.932056371075    2.246256593975    3.240826188594
 H    3.306629646732    1.589451722674    2.321325518182
 C    1.418353319863    0.813434929634    1.716958448619
 O    0.665411681801    1.617581945886    1.060558697604
 O    1.394224499877   -0.436516867393    1.431420831926
LI    0.902101741996    0.228894963048   -0.507247301597
LI   -0.605746536667   -0.056528892533    0.879106106764
 C   -1.460175413649   -0.834672112500   -1.752597071619
 O   -1.433675710909    0.414859462188   -1.469698760362
 O   -0.707779888176   -1.638245758834   -1.096675419999
 C   -2.369502640566   -1.355309127110   -2.848629660462
 H   -2.657471905050   -2.394222389732   -2.646065502824
 H   -1.815155597086   -1.332675541492   -3.794931081093
 H   -3.251178700136   -0.711096779406   -2.953210153612
