16

 C    2.450915539109    1.396799264418    2.919127525744
 H    2.632708442764    0.625023990995    3.676596389912
 H    2.039250874244    2.307631008443    3.370030137778
 H    3.413824149901    1.650826137142    2.450529467366
 C    1.525547823032    0.874809344102    1.846162397803
 O    0.772606184970    1.678956360354    1.189762646788
 O    1.501419003046   -0.375142452925    1.560624781110
LI    1.009296245165    0.290269377516   -0.378043352413
LI   -0.498552033498    0.004845521935    1.008310055948
 C   -1.592858304940   -0.910639951542   -1.912522749122
 O   -1.566358602199    0.338891623146   -1.629624437865
 O   -0.840462779467   -1.714213597877   -1.256601097501
 C   -2.502185531856   -1.431276966152   -3.008555337965
 H   -2.790154796341   -2.470190228774   -2.805991180326
 H   -1.947838488376   -1.408643380534   -3.954856758595
 H   -3.383861591426   -0.787064618449   -3.113135831115
