16

 C    2.504512790693    1.427486471653    2.983729500336
 H    2.686305694348    0.655711198230    3.741198364504
 H    2.092848125828    2.338318215678    3.434632112370
 H    3.467421401485    1.681513344377    2.515131441958
 C    1.579145074616    0.905496551337    1.910764372395
 O    0.826203436554    1.709643567589    1.254364621380
 O    1.555016254630   -0.344455245690    1.625226755702
LI    1.062893496749    0.320956584751   -0.313441377821
LI   -0.444954781914    0.035532729170    1.072912030540
 C   -1.659199750585   -0.948623871063   -1.992485587873
 O   -1.632700047844    0.300907703625   -1.709587276616
 O   -0.906804225112   -1.752197517398   -1.336563936253
 C   -2.568526977502   -1.469260885673   -3.088518176716
 H   -2.856496241986   -2.508174148296   -2.885954019078
 H   -2.014179934022   -1.446627300055   -4.034819597347
 H   -3.450203037072   -0.825048537970   -3.193098669866
