16

 C    2.531311416486    1.442830075270    3.016030487632
 H    2.713104320141    0.671054801847    3.773499351800
 H    2.119646751621    2.353661819295    3.466933099666
 H    3.494220027278    1.696856947994    2.547432429254
 C    1.605943700409    0.920840154954    1.943065359691
 O    0.853002062347    1.724987171206    1.286665608676
 O    1.581814880423   -0.329111642073    1.657527742998
LI    1.089692122542    0.336300188368   -0.281140390525
LI   -0.418156156121    0.050876332787    1.105213017836
 C   -1.692370473408   -0.967615830824   -2.032467007249
 O   -1.665870770667    0.281915743864   -1.749568695992
 O   -0.939974947934   -1.771189477158   -1.376545355628
 C   -2.601697700324   -1.488252845434   -3.128499596092
 H   -2.889666964808   -2.527166108056   -2.925935438453
 H   -2.047350656844   -1.465619259816   -4.074801016722
 H   -3.483373759894   -0.844040497730   -3.233080089242
