16

 C    2.558110042278    1.458173678887    3.048331474928
 H    2.739902945933    0.686398405464    3.805800339096
 H    2.146445377413    2.369005422912    3.499234086962
 H    3.521018653070    1.712200551611    2.579733416550
 C    1.632742326201    0.936183758571    1.975366346987
 O    0.879800688139    1.740330774823    1.318966595972
 O    1.608613506215   -0.313768038456    1.689828730294
LI    1.116490748334    0.351643791985   -0.248839403229
LI   -0.391357530329    0.066219936404    1.137514005132
 C   -1.725541196230   -0.986607790584   -2.072448426624
 O   -1.699041493489    0.262923784104   -1.789550115367
 O   -0.973145670757   -1.790181436919   -1.416526775004
 C   -2.634868423147   -1.507244805194   -3.168481015467
 H   -2.922837687631   -2.546158067817   -2.965916857829
 H   -2.080521379667   -1.484611219576   -4.114782436098
 H   -3.516544482717   -0.863032457491   -3.273061508617
