16

 C    2.611707293862    1.488860886121    3.112933449520
 H    2.793500197517    0.717085612698    3.870402313688
 H    2.200042628997    2.399692630146    3.563836061554
 H    3.574615904654    1.742887758845    2.644335391142
 C    1.686339577785    0.966870965805    2.039968321579
 O    0.933397939723    1.771017982057    1.383568570564
 O    1.662210757799   -0.283080831222    1.754430704886
LI    1.170087999918    0.382330999219   -0.184237428637
LI   -0.337760278745    0.096907143638    1.202115979724
 C   -1.791882641875   -1.024591710106   -2.152411265376
 O   -1.765382939135    0.224939864583   -1.869512954119
 O   -1.039487116402   -1.828165356440   -1.496489613755
 C   -2.701209868792   -1.545228724716   -3.248443854219
 H   -2.989179133276   -2.584141987338   -3.045879696580
 H   -2.146862825312   -1.522595139097   -4.194745274849
 H   -3.582885928362   -0.901016377012   -3.353024347369
