16

 C    2.665304545447    1.519548093356    3.177535424112
 H    2.847097449102    0.747772819933    3.935004288280
 H    2.253639880582    2.430379837381    3.628438036146
 H    3.628213156239    1.773574966080    2.708937365734
 C    1.739936829370    0.997558173040    2.104570296171
 O    0.986995191308    1.801705189292    1.448170545156
 O    1.715808009384   -0.252393623987    1.819032679478
LI    1.223685251503    0.413018206454   -0.119635454045
LI   -0.284163027160    0.127594350873    1.266717954316
 C   -1.858224087521   -1.062575629627   -2.232374104127
 O   -1.831724384780    0.186955945061   -1.949475792870
 O   -1.105828562047   -1.866149275961   -1.576452452506
 C   -2.767551314437   -1.583212644237   -3.328406692970
 H   -3.055520578921   -2.622125906859   -3.125842535332
 H   -2.213204270957   -1.560579058619   -4.274708113600
 H   -3.649227374007   -0.939000296533   -3.432987186120
