16

 C    2.718901797031    1.550235300590    3.242137398704
 H    2.900694700686    0.778460027167    3.999606262872
 H    2.307237132166    2.461067044615    3.693040010738
 H    3.681810407823    1.804262173314    2.773539340326
 C    1.793534080954    1.028245380274    2.169172270763
 O    1.040592442892    1.832392396526    1.512772519748
 O    1.769405260968   -0.221706416753    1.883634654070
LI    1.277282503087    0.443705413688   -0.055033479453
LI   -0.230565775576    0.158281558107    1.331319928908
 C   -1.924565533166   -1.100559549148   -2.312336942878
 O   -1.898065830425    0.148972025540   -2.029438631621
 O   -1.172170007693   -1.904133195483   -1.656415291258
 C   -2.833892760082   -1.621196563758   -3.408369531721
 H   -3.121862024567   -2.660109826380   -3.205805374083
 H   -2.279545716602   -1.598562978140   -4.354670952352
 H   -3.715568819652   -0.976984216054   -3.512950024871
