16

 C    2.772499048616    1.580922507825    3.306739373296
 H    2.954291952271    0.809147234402    4.064208237464
 H    2.360834383751    2.491754251850    3.757641985330
 H    3.735407659408    1.834949380549    2.838141314918
 C    1.847131332539    1.058932587509    2.233774245355
 O    1.094189694477    1.863079603761    1.577374494340
 O    1.823002512553   -0.191019209518    1.948236628662
LI    1.330879754672    0.474392620923    0.009568495139
LI   -0.176968523991    0.188968765342    1.395921903500
 C   -1.990906978811   -1.138543468669   -2.392299781629
 O   -1.964407276070    0.110988106019   -2.109401470373
 O   -1.238511453338   -1.942117115004   -1.736378130009
 C   -2.900234205727   -1.659180483279   -3.488332370473
 H   -3.188203470212   -2.698093745902   -3.285768212834
 H   -2.345887162248   -1.636546897661   -4.434633791103
 H   -3.781910265297   -1.014968135576   -3.592912863622
