16

 C    2.879693551785    1.642296922293    3.435943322480
 H    3.061486455440    0.870521648870    4.193412186648
 H    2.468028886920    2.553128666318    3.886845934514
 H    3.842602162577    1.896323795017    2.967345264102
 C    1.954325835708    1.120307001977    2.362978194539
 O    1.201384197646    1.924454018229    1.706578443524
 O    1.930197015722   -0.129644795050    2.077440577846
LI    1.438074257841    0.535767035391    0.138772444323
LI   -0.069774020822    0.250343179810    1.525125852684
 C   -2.123589870101   -1.214511307712   -2.552225459132
 O   -2.097090167361    0.035020266977   -2.269327147875
 O   -1.371194344628   -2.018084954046   -1.896303807512
 C   -3.032917097018   -1.735148322321   -3.648258047975
 H   -3.320886361502   -2.774061584944   -3.445693890337
 H   -2.478570053538   -1.712514736703   -4.594559468606
 H   -3.914593156588   -1.090935974618   -3.752838541125
