16

 C    2.906492177577    1.657640525911    3.468244309776
 H    3.088285081232    0.885865252488    4.225713173944
 H    2.494827512712    2.568472269936    3.919146921810
 H    3.869400788369    1.911667398635    2.999646251398
 C    1.981124461500    1.135650605595    2.395279181835
 O    1.228182823438    1.939797621847    1.738879430820
 O    1.956995641514   -0.114301191432    2.109741565142
LI    1.464872883633    0.551110639009    0.171073431619
LI   -0.042975395030    0.265686783428    1.557426839980
 C   -2.156760592924   -1.233503267472   -2.592206878508
 O   -2.130260890183    0.016028307216   -2.309308567251
 O   -1.404365067451   -2.037076913807   -1.936285226887
 C   -3.066087819840   -1.754140282082   -3.688239467351
 H   -3.354057084325   -2.793053544704   -3.485675309713
 H   -2.511740776360   -1.731506696464   -4.634540887981
 H   -3.947763879410   -1.109927934379   -3.792819960501
