16

 C    3.040485306538    1.734358543996    3.629749246255
 H    3.222278210193    0.962583270573    4.387218110423
 H    2.628820641673    2.645190288021    4.080651858289
 H    4.003393917330    1.988385416720    3.161151187877
 C    2.115117590461    1.212368623680    2.556784118314
 O    1.362175952399    2.016515639932    1.900384367299
 O    2.090988770475   -0.037583173347    2.271246501621
LI    1.598866012594    0.627828657094    0.332578368098
LI    0.091017733931    0.342404801513    1.718931776459
 C   -2.322614207037   -1.328463066275   -2.792113975386
 O   -2.296114504296   -0.078931491587   -2.509215664129
 O   -1.570218681564   -2.132036712610   -2.136192323765
 C   -3.231941433953   -1.849100080885   -3.888146564229
 H   -3.519910698438   -2.888013343507   -3.685582406591
 H   -2.677594390473   -1.826466495267   -4.834447984859
 H   -4.113617493523   -1.204887733182   -3.992727057379
