16

 C    3.228075687084    1.841763769317    3.855856157327
 H    3.409868590739    1.069988495894    4.613325021495
 H    2.816411022219    2.752595513342    4.306758769361
 H    4.190984297876    2.095790642041    3.387258098949
 C    2.302707971007    1.319773849001    2.782891029386
 O    1.549766332945    2.123920865253    2.126491278371
 O    2.278579151021    0.069822051974    2.497353412693
LI    1.786456393140    0.735233882415    0.558685279170
LI    0.278608114477    0.449810026834    1.945038687531
 C   -2.554809266795   -1.461406784599   -3.071983911015
 O   -2.528309564054   -0.211875209911   -2.789085599759
 O   -1.802413741322   -2.264980430934   -2.416062259395
 C   -3.464136493712   -1.982043799209   -4.168016499859
 H   -3.752105758196   -3.020957061832   -3.965452342220
 H   -2.909789450232   -1.959410213591   -5.114317920489
 H   -4.345812553282   -1.337831451506   -4.272596993008
