16

 C    3.254874312876    1.857107372934    3.888157144623
 H    3.436667216531    1.085332099511    4.645626008791
 H    2.843209648011    2.767939116959    4.339059756657
 H    4.217782923668    2.111134245658    3.419559086245
 C    2.329506596799    1.335117452618    2.815192016682
 O    1.576564958737    2.139264468870    2.158792265667
 O    2.305377776813    0.085165655591    2.529654399989
LI    1.813255018932    0.750577486032    0.590986266466
LI    0.305406740269    0.465153630451    1.977339674827
 C   -2.587979989618   -1.480398744360   -3.111965330391
 O   -2.561480286877   -0.230867169672   -2.829067019134
 O   -1.835584464144   -2.283972390694   -2.456043678771
 C   -3.497307216534   -2.001035758970   -4.207997919234
 H   -3.785276481018   -3.039949021592   -4.005433761596
 H   -2.942960173054   -1.978402173352   -5.154299339865
 H   -4.378983276104   -1.356823411266   -4.312578412384
