16

 C    3.362068816045    1.918481787403    4.017361093807
 H    3.543861719700    1.146706513980    4.774829957975
 H    2.950404151180    2.829313531428    4.468263705841
 H    4.324977426837    2.172508660127    3.548763035429
 C    2.436701099968    1.396491867087    2.944395965866
 O    1.683759461906    2.200638883339    2.287996214851
 O    2.412572279982    0.146540070060    2.658858349173
LI    1.920449522101    0.811951900501    0.720190215650
LI    0.412601243438    0.526528044920    2.106543624011
 C   -2.720662880908   -1.556366583402   -3.271891007894
 O   -2.694163178167   -0.306835008714   -2.988992696637
 O   -1.968267355435   -2.359940229737   -2.615969356273
 C   -3.629990107824   -2.077003598012   -4.367923596737
 H   -3.917959372309   -3.115916860634   -4.165359439099
 H   -3.075643064345   -2.054370012394   -5.314225017367
 H   -4.511666167394   -1.432791250309   -4.472504089887
