16

 C    3.388867441838    1.933825391020    4.049662081103
 H    3.570660345493    1.162050117597    4.807130945271
 H    2.977202776973    2.844657135045    4.500564693137
 H    4.351776052630    2.187852263744    3.581064022725
 C    2.463499725761    1.411835470704    2.976696953162
 O    1.710558087699    2.215982486956    2.320297202147
 O    2.439370905775    0.161883673677    2.691159336469
LI    1.947248147894    0.827295504118    0.752491202946
LI    0.439399869231    0.541871648537    2.138844611307
 C   -2.753833603731   -1.575358543163   -3.311872427269
 O   -2.727333900990   -0.325826968475   -3.028974116013
 O   -2.001438078257   -2.378932189497   -2.655950775649
 C   -3.663160830647   -2.095995557773   -4.407905016113
 H   -3.951130095131   -3.134908820395   -4.205340858474
 H   -3.108813787167   -2.073361972155   -5.354206436743
 H   -4.544836890217   -1.451783210069   -4.512485509262
