16

 C    3.442464693422    1.964512598254    4.114264055695
 H    3.624257597077    1.192737324831    4.871732919863
 H    3.030800028557    2.875344342279    4.565166667729
 H    4.405373304214    2.218539470978    3.645665997317
 C    2.517096977345    1.442522677938    3.041298927754
 O    1.764155339283    2.246669694190    2.384899176739
 O    2.492968157359    0.192570880911    2.755761311061
LI    2.000845399478    0.857982711352    0.817093177538
LI    0.492997120815    0.572558855771    2.203446585899
 C   -2.820175049376   -1.613342462684   -3.391835266021
 O   -2.793675346635   -0.363810887996   -3.108936954764
 O   -2.067779523903   -2.416916109019   -2.735913614400
 C   -3.729502276292   -2.133979477294   -4.487867854864
 H   -4.017471540777   -3.172892739916   -4.285303697225
 H   -3.175155232812   -2.111345891676   -5.434169275494
 H   -4.611178335862   -1.489767129590   -4.592448348014
