16

 C    3.469263319214    1.979856201871    4.146565042991
 H    3.651056222869    1.208080928448    4.904033907159
 H    3.057598654349    2.890687945896    4.597467655025
 H    4.432171930006    2.233883074595    3.677966984613
 C    2.543895603137    1.457866281555    3.073599915050
 O    1.790953965075    2.262013297807    2.417200164035
 O    2.519766783151    0.207914484528    2.788062298357
LI    2.027644025270    0.873326314969    0.849394164834
LI    0.519795746607    0.587902459388    2.235747573195
 C   -2.853345772198   -1.632334422445   -3.431816685396
 O   -2.826846069458   -0.382802847756   -3.148918374140
 O   -2.100950246725   -2.435908068779   -2.775895033776
 C   -3.762672999115   -2.152971437054   -4.527849274239
 H   -4.050642263599   -3.191884699677   -4.325285116601
 H   -3.208325955635   -2.130337851436   -5.474150694870
 H   -4.644349058685   -1.508759089351   -4.632429767389
