16

 C    3.522860570799    2.010543409106    4.211167017583
 H    3.704653474454    1.238768135683    4.968635881751
 H    3.111195905934    2.921375153131    4.662069629617
 H    4.485769181591    2.264570281830    3.742568959205
 C    2.597492854722    1.488553488790    3.138201889642
 O    1.844551216660    2.292700505042    2.481802138627
 O    2.573364034736    0.238601691763    2.852664272949
LI    2.081241276855    0.904013522204    0.913996139426
LI    0.573392998192    0.618589666623    2.300349547787
 C   -2.919687217844   -1.670318341966   -3.511779524148
 O   -2.893187515103   -0.420786767278   -3.228881212891
 O   -2.167291692370   -2.473891988300   -2.855857872527
 C   -3.829014444760   -2.190955356576   -4.607812112991
 H   -4.116983709244   -3.229868619198   -4.405247955352
 H   -3.274667401280   -2.168321770958   -5.554113533621
 H   -4.710690504330   -1.546743008872   -4.712392606141
