16

 C    3.549659196591    2.025887012723    4.243468004879
 H    3.731452100246    1.254111739300    5.000936869047
 H    3.137994531726    2.936718756748    4.694370616913
 H    4.512567807383    2.279913885447    3.774869946501
 C    2.624291480514    1.503897092407    3.170502876938
 O    1.871349842452    2.308044108659    2.514103125923
 O    2.600162660528    0.253945295380    2.884965260245
LI    2.108039902647    0.919357125821    0.946297126722
LI    0.600191623984    0.633933270240    2.332650535083
 C   -2.952857940666   -1.689310301726   -3.551760943523
 O   -2.926358237925   -0.439778727038   -3.268862632266
 O   -2.200462415193   -2.492883948061   -2.895839291903
 C   -3.862185167583   -2.209947316336   -4.647793532366
 H   -4.150154432067   -3.248860578959   -4.445229374728
 H   -3.307838124103   -2.187313730718   -5.594094952997
 H   -4.743861227153   -1.565734968633   -4.752374025516
