16

 C    3.576457822383    2.041230616340    4.275768992175
 H    3.758250726038    1.269455342917    5.033237856343
 H    3.164793157518    2.952062360365    4.726671604209
 H    4.539366433175    2.295257489064    3.807170933797
 C    2.651090106306    1.519240696024    3.202803864234
 O    1.898148468244    2.323387712276    2.546404113219
 O    2.626961286320    0.269288898997    2.917266247541
LI    2.134838528439    0.934700729438    0.978598114018
LI    0.626990249776    0.649276873857    2.364951522379
 C   -2.986028663489   -1.708302261487   -3.591742362899
 O   -2.959528960748   -0.458770686799   -3.308844051642
 O   -2.233633138015   -2.511875907821   -2.935820711278
 C   -3.895355890405   -2.228939276097   -4.687774951742
 H   -4.183325154889   -3.267852538719   -4.485210794104
 H   -3.341008846925   -2.206305690479   -5.634076372372
 H   -4.777031949975   -1.584726928393   -4.792355444892
