16

 C    3.603256448175    2.056574219957    4.308069979471
 H    3.785049351830    1.284798946534    5.065538843639
 H    3.191591783310    2.967405963982    4.758972591505
 H    4.566165058967    2.310601092681    3.839471921093
 C    2.677888732098    1.534584299641    3.235104851530
 O    1.924947094036    2.338731315893    2.578705100515
 O    2.653759912112    0.284632502614    2.949567234837
LI    2.161637154231    0.950044333055    1.010899101314
LI    0.653788875568    0.664620477474    2.397252509675
 C   -3.019199386311   -1.727294221247   -3.631723782275
 O   -2.992699683571   -0.477762646559   -3.348825471018
 O   -2.266803860838   -2.530867867582   -2.975802130654
 C   -3.928526613228   -2.247931235857   -4.727756371118
 H   -4.216495877712   -3.286844498480   -4.525192213479
 H   -3.374179569748   -2.225297650239   -5.674057791748
 H   -4.810202672798   -1.603718888154   -4.832336864268
