16

 C    3.630055073968    2.071917823575    4.340370966767
 H    3.811847977623    1.300142550152    5.097839830935
 H    3.218390409103    2.982749567600    4.791273578801
 H    4.592963684760    2.325944696299    3.871772908389
 C    2.704687357891    1.549927903259    3.267405838826
 O    1.951745719829    2.354074919511    2.611006087811
 O    2.680558537905    0.299976106232    2.981868222133
LI    2.188435780024    0.965387936673    1.043200088610
LI    0.680587501361    0.679964081092    2.429553496971
 C   -3.052370109134   -1.746286181008   -3.671705201650
 O   -3.025870406393   -0.496754606320   -3.388806890393
 O   -2.299974583661   -2.549859827343   -3.015783550030
 C   -3.961697336050   -2.266923195618   -4.767737790493
 H   -4.249666600535   -3.305836458240   -4.565173632855
 H   -3.407350292570   -2.244289610000   -5.714039211124
 H   -4.843373395620   -1.622710847914   -4.872318283643
