16

 C    3.656853699760    2.087261427192    4.372671954063
 H    3.838646603415    1.315486153769    5.130140818231
 H    3.245189034895    2.998093171217    4.823574566097
 H    4.619762310552    2.341288299916    3.904073895685
 C    2.731485983683    1.565271506876    3.299706826122
 O    1.978544345621    2.369418523128    2.643307075107
 O    2.707357163697    0.315319709849    3.014169209429
LI    2.215234405816    0.980731540290    1.075501075906
LI    0.707386127153    0.695307684709    2.461854484267
 C   -3.085540831956   -1.765278140769   -3.711686621026
 O   -3.059041129216   -0.515746566080   -3.428788309769
 O   -2.333145306483   -2.568851787103   -3.055764969405
 C   -3.994868058873   -2.285915155379   -4.807719209869
 H   -4.282837323357   -3.324828418001   -4.605155052231
 H   -3.440521015393   -2.263281569760   -5.754020630499
 H   -4.876544118443   -1.641702807675   -4.912299703019
