16

 C    3.710450951344    2.117948634426    4.437273928655
 H    3.892243854999    1.346173361003    5.194742792823
 H    3.298786286479    3.028780378451    4.888176540689
 H    4.673359562136    2.371975507150    3.968675870277
 C    2.785083235267    1.595958714110    3.364308800714
 O    2.032141597205    2.400105730362    2.707909049699
 O    2.760954415281    0.346006917083    3.078771184021
LI    2.268831657400    1.011418747524    1.140103050498
LI    0.760983378737    0.725994891943    2.526456458859
 C   -3.151882277602   -1.803262060290   -3.791649459777
 O   -3.125382574861   -0.553730485602   -3.508751148520
 O   -2.399486752128   -2.606835706624   -3.135727808157
 C   -4.061209504518   -2.323899074900   -4.887682048620
 H   -4.349178769002   -3.362812337522   -4.685117890982
 H   -3.506862461038   -2.301265489282   -5.833983469251
 H   -4.942885564088   -1.679686727196   -4.992262541770
