14

 N    1.161480394959    0.879608781170   -0.067295886895
 C    0.076033452056    1.702367750998   -0.064154015674
 H    0.267554291938    2.777424723497   -0.066658614216
 C    1.079616674277   -0.539661680556   -0.066278218011
 O    2.123359921595   -1.192903570617   -0.068759059323
 N   -0.194221414404   -1.081801312149   -0.055664983881
 C   -1.251907527217   -0.280449281274   -0.058158028709
 N   -2.483900643673   -0.884248310354   -0.103563851918
 H   -2.492835111994   -1.883942196865    0.066006756647
 H   -3.302478387876   -0.357819990954    0.171336272879
 C   -1.183325528783    1.160927557921   -0.061641462375
 H   -2.071849244468    1.792245149165   -0.071123416402
 H    2.105420517886    1.254256993612   -0.070601783123
LI    1.164033078983    0.878775918812    1.032700835893
