14

 N    1.161439022118    0.879622279857   -0.085124176408
 C    0.075992079215    1.702381249685   -0.081982305187
 H    0.267512919097    2.777438222184   -0.084486903729
 C    1.079575301436   -0.539648181869   -0.084106507524
 O    2.123318548754   -1.192890071930   -0.086587348836
 N   -0.194262787245   -1.081787813462   -0.073493273394
 C   -1.251948900058   -0.280435782587   -0.075986318222
 N   -2.483942016514   -0.884234811667   -0.121392141431
 H   -2.492876484835   -1.883928698178    0.048178467134
 H   -3.302519760717   -0.357806492267    0.153507983366
 C   -1.183366901624    1.160941056608   -0.079469751888
 H   -2.071890617309    1.792258647852   -0.088951705915
 H    2.105379145045    1.254270492299   -0.088430072636
LI    1.164687892694    0.878562273219    1.314871652595
