14

 N    1.161425231171    0.879626779420   -0.091066939579
 C    0.075978288268    1.702385749248   -0.087925068358
 H    0.267499128150    2.777442721747   -0.090429666900
 C    1.079561510489   -0.539643682306   -0.090049270695
 O    2.123304757807   -1.192885572367   -0.092530112007
 N   -0.194276578192   -1.081783313899   -0.079436036565
 C   -1.251962691005   -0.280431283024   -0.081929081393
 N   -2.483955807461   -0.884230312104   -0.127334904602
 H   -2.492890275782   -1.883924198615    0.042235703963
 H   -3.302533551664   -0.357801992704    0.147565220195
 C   -1.183380692571    1.160945556171   -0.085412515059
 H   -2.071904408256    1.792263147415   -0.094894469086
 H    2.105365354098    1.254274991862   -0.094372835807
LI    1.164906163931    0.878491058021    1.408928591496
