14

 N    1.161370067383    0.879644777669   -0.114837992262
 C    0.075923124480    1.702403747497   -0.111696121041
 H    0.267443964362    2.777460719996   -0.114200719583
 C    1.079506346701   -0.539625684057   -0.113820323378
 O    2.123249594019   -1.192867574118   -0.116301164690
 N   -0.194331741980   -1.081765315650   -0.103207089248
 C   -1.252017854793   -0.280413284775   -0.105700134076
 N   -2.484010971249   -0.884212313855   -0.151105957285
 H   -2.492945439570   -1.883906200366    0.018464651280
 H   -3.302588715452   -0.357783994455    0.123794167512
 C   -1.183435856359    1.160963554420   -0.109183567742
 H   -2.071959572044    1.792281145664   -0.118665521769
 H    2.105310190310    1.254292990111   -0.118143888490
LI    1.165779248879    0.878206197231    1.785156347099
