14

 N    1.161342485488    0.879653776793   -0.126723518604
 C    0.075895542585    1.702412746621   -0.123581647383
 H    0.267416382467    2.777469719120   -0.126086245925
 C    1.079478764806   -0.539616684933   -0.125705849720
 O    2.123222012124   -1.192858574994   -0.128186691032
 N   -0.194359323875   -1.081756316526   -0.115092615590
 C   -1.252045436688   -0.280404285651   -0.117585660418
 N   -2.484038553144   -0.884203314731   -0.162991483627
 H   -2.492973021465   -1.883897201242    0.006579124938
 H   -3.302616297347   -0.357774995331    0.111908641170
 C   -1.183463438254    1.160972553544   -0.121069094084
 H   -2.071987153939    1.792290144788   -0.130551048111
 H    2.105282608415    1.254301989235   -0.130029414832
LI    1.166215791353    0.878063766836    1.973270224900
