14

 N    1.161314903594    0.879662775918   -0.138609044946
 C    0.075867960691    1.702421745746   -0.135467173725
 H    0.267388800573    2.777478718245   -0.137971772267
 C    1.079451182912   -0.539607685808   -0.137591376062
 O    2.123194430230   -1.192849575869   -0.140072217374
 N   -0.194386905769   -1.081747317401   -0.126978141932
 C   -1.252073018582   -0.280395286526   -0.129471186760
 N   -2.484066135038   -0.884194315606   -0.174877009969
 H   -2.493000603359   -1.883888202117   -0.005306401404
 H   -3.302643879241   -0.357765996206    0.100023114828
 C   -1.183491020148    1.160981552669   -0.132954620426
 H   -2.072014735833    1.792299143913   -0.142436574453
 H    2.105255026521    1.254310988360   -0.141914941174
LI    1.166652333827    0.877921336440    2.161384102702
