14

 N    1.161301112647    0.879667275480   -0.144551808117
 C    0.075854169744    1.702426245308   -0.141409936896
 H    0.267375009626    2.777483217807   -0.143914535438
 C    1.079437391965   -0.539603186246   -0.143534139233
 O    2.123180639283   -1.192845076307   -0.146014980545
 N   -0.194400696716   -1.081742817839   -0.132920905103
 C   -1.252086809529   -0.280390786964   -0.135413949931
 N   -2.484079925985   -0.884189816044   -0.180819773140
 H   -2.493014394306   -1.883883702555   -0.011249164575
 H   -3.302657670188   -0.357761496644    0.094080351657
 C   -1.183504811095    1.160986052231   -0.138897383597
 H   -2.072028526780    1.792303643475   -0.148379337624
 H    2.105241235574    1.254315487922   -0.147857704345
LI    1.166870605063    0.877850121243    2.255441041603
