14

 N    1.161245948859    0.879685273729   -0.168322860800
 C    0.075799005956    1.702444243557   -0.165180989579
 H    0.267319845838    2.777501216056   -0.167685588121
 C    1.079382228177   -0.539585187997   -0.167305191916
 O    2.123125475495   -1.192827078058   -0.169786033228
 N   -0.194455860504   -1.081724819590   -0.156691957786
 C   -1.252141973317   -0.280372788715   -0.159185002614
 N   -2.484135089773   -0.884171817795   -0.204590825823
 H   -2.493069558094   -1.883865704306   -0.035020217258
 H   -3.302712833976   -0.357743498395    0.070309298974
 C   -1.183559974883    1.161004050480   -0.162668436280
 H   -2.072083690568    1.792321641724   -0.172150390307
 H    2.105186071786    1.254333486171   -0.171628757028
LI    1.167743690011    0.877565260452    2.631668797206
