14

 N    1.161232157912    0.879689773291   -0.174265623971
 C    0.075785215009    1.702448743119   -0.171123752750
 H    0.267306054891    2.777505715618   -0.173628351292
 C    1.079368437230   -0.539580688435   -0.173247955087
 O    2.123111684548   -1.192822578496   -0.175728796399
 N   -0.194469651451   -1.081720320028   -0.162634720957
 C   -1.252155764264   -0.280368289153   -0.165127765785
 N   -2.484148880720   -0.884167318233   -0.210533588994
 H   -2.493083349041   -1.883861204744   -0.040962980429
 H   -3.302726624923   -0.357738998833    0.064366535803
 C   -1.183573765830    1.161008550042   -0.168611199451
 H   -2.072097481515    1.792326141286   -0.178093153478
 H    2.105172280839    1.254337985733   -0.177571520199
LI    1.167961961248    0.877494045255    2.725725736106
