14

 N    1.161163203176    0.879712271103   -0.203979439826
 C    0.075716260273    1.702471240931   -0.200837568605
 H    0.267237100155    2.777528213430   -0.203342167147
 C    1.079299482494   -0.539558190623   -0.202961770942
 O    2.123042729812   -1.192800080684   -0.205442612254
 N   -0.194538606187   -1.081697822216   -0.192348536812
 C   -1.252224719000   -0.280345791341   -0.194841581640
 N   -2.484217835456   -0.884144820421   -0.240247404849
 H   -2.493152303777   -1.883838706932   -0.070676796284
 H   -3.302795579659   -0.357716501021    0.034652719948
 C   -1.183642720566    1.161031047854   -0.198325015306
 H   -2.072166436251    1.792348639098   -0.207806969333
 H    2.105103326103    1.254360483545   -0.207285336054
LI    1.169053317433    0.877137969267    3.196010430610
