14

 N    1.161121830335    0.879725769790   -0.221807729338
 C    0.075674887432    1.702484739618   -0.218665858117
 H    0.267195727314    2.777541712117   -0.221170456659
 C    1.079258109653   -0.539544691936   -0.220790060454
 O    2.123001356971   -1.192786581997   -0.223270901766
 N   -0.194579979028   -1.081684323529   -0.210176826324
 C   -1.252266091841   -0.280332292654   -0.212669871152
 N   -2.484259208297   -0.884131321734   -0.258075694361
 H   -2.493193676618   -1.883825208245   -0.088505085796
 H   -3.302836952500   -0.357703002334    0.016824430436
 C   -1.183684093407    1.161044546541   -0.216153304818
 H   -2.072207809092    1.792362137785   -0.225635258845
 H    2.105061953262    1.254373982232   -0.225113625566
LI    1.169708131143    0.876924323674    3.478181247313
