14

 N    1.161108039388    0.879730269352   -0.227750492509
 C    0.075661096485    1.702489239180   -0.224608621288
 H    0.267181936367    2.777546211679   -0.227113219830
 C    1.079244318706   -0.539540192374   -0.226732823625
 O    2.122987566024   -1.192782082435   -0.229213664937
 N   -0.194593769975   -1.081679823967   -0.216119589495
 C   -1.252279882788   -0.280327793092   -0.218612634323
 N   -2.484272999244   -0.884126822172   -0.264018457532
 H   -2.493207467565   -1.883820708683   -0.094447848967
 H   -3.302850743447   -0.357698502772    0.010881667265
 C   -1.183697884354    1.161049046103   -0.222096067989
 H   -2.072221600039    1.792366637347   -0.231578022016
 H    2.105048162315    1.254378481794   -0.231056388737
LI    1.169926402380    0.876853108476    3.572238186213
