14

 N    1.161066666547    0.879743768039   -0.245578782022
 C    0.075619723644    1.702502737867   -0.242436910801
 H    0.267140563526    2.777559710366   -0.244941509343
 C    1.079202945865   -0.539526693687   -0.244561113138
 O    2.122946193183   -1.192768583748   -0.247041954450
 N   -0.194635142816   -1.081666325280   -0.233947879008
 C   -1.252321255629   -0.280314294405   -0.236440923836
 N   -2.484314372085   -0.884113323485   -0.281846747045
 H   -2.493248840406   -1.883807209996   -0.112276138480
 H   -3.302892116288   -0.357685004085   -0.006946622248
 C   -1.183739257195    1.161062544790   -0.239924357502
 H   -2.072262972880    1.792380136034   -0.249406311529
 H    2.105006789474    1.254391980481   -0.248884678250
LI    1.170581216091    0.876639462883    3.854409002916
