14

 N    1.161039084652    0.879752767163   -0.257464308364
 C    0.075592141749    1.702511736991   -0.254322437143
 H    0.267112981631    2.777568709490   -0.256827035685
 C    1.079175363970   -0.539517694563   -0.256446639480
 O    2.122918611288   -1.192759584624   -0.258927480792
 N   -0.194662724711   -1.081657326156   -0.245833405350
 C   -1.252348837524   -0.280305295281   -0.248326450178
 N   -2.484341953980   -0.884104324361   -0.293732273387
 H   -2.493276422301   -1.883798210872   -0.124161664822
 H   -3.302919698183   -0.357676004961   -0.018832148590
 C   -1.183766839090    1.161071543914   -0.251809883844
 H   -2.072290554775    1.792389135158   -0.261291837871
 H    2.104979207579    1.254400979605   -0.260770204592
LI    1.171017758565    0.876497032488    4.042522880717
