14

 N    1.161025293705    0.879757266725   -0.263407071534
 C    0.075578350802    1.702516236553   -0.260265200313
 H    0.267099190684    2.777573209052   -0.262769798855
 C    1.079161573023   -0.539513195001   -0.262389402650
 O    2.122904820341   -1.192755085062   -0.264870243962
 N   -0.194676515658   -1.081652826594   -0.251776168520
 C   -1.252362628471   -0.280300795719   -0.254269213348
 N   -2.484355744927   -0.884099824799   -0.299675036557
 H   -2.493290213248   -1.883793711310   -0.130104427992
 H   -3.302933489130   -0.357671505399   -0.024774911760
 C   -1.183780630037    1.161076043476   -0.257752647014
 H   -2.072304345722    1.792393634720   -0.267234601041
 H    2.104965416632    1.254405479167   -0.266712967762
LI    1.171236029802    0.876425817290    4.136579819618
