14

 N    1.160983920864    0.879770765412   -0.281235361047
 C    0.075536977961    1.702529735240   -0.278093489826
 H    0.267057817843    2.777586707739   -0.280598088368
 C    1.079120200182   -0.539499696314   -0.280217692163
 O    2.122863447500   -1.192741586375   -0.282698533475
 N   -0.194717888499   -1.081639327907   -0.269604458033
 C   -1.252404001312   -0.280287297032   -0.272097502861
 N   -2.484397117768   -0.884086326112   -0.317503326070
 H   -2.493331586089   -1.883780212623   -0.147932717505
 H   -3.302974861971   -0.357658006712   -0.042603201273
 C   -1.183822002878    1.161089542163   -0.275580936527
 H   -2.072345718563    1.792407133407   -0.285062890554
 H    2.104924043791    1.254418977854   -0.284541257275
LI    1.171890843513    0.876212171698    4.418750636320
