14

 N    1.160901175181    0.879797762786   -0.316891940072
 C    0.075454232278    1.702556732614   -0.313750068851
 H    0.266975072160    2.777613705113   -0.316254667393
 C    1.079037454499   -0.539472698940   -0.315874271188
 O    2.122780701817   -1.192714589001   -0.318355112500
 N   -0.194800634182   -1.081612330533   -0.305261037058
 C   -1.252486746995   -0.280260299658   -0.307754081886
 N   -2.484479863451   -0.884059328738   -0.353159905095
 H   -2.493414331772   -1.883753215249   -0.183589296530
 H   -3.303057607654   -0.357631009338   -0.078259780298
 C   -1.183904748561    1.161116539537   -0.311237515552
 H   -2.072428464246    1.792434130781   -0.320719469579
 H    2.104841298108    1.254445975228   -0.320197836300
LI    1.173200470934    0.875784880512    4.983092269725
