14

 N    1.160873593287    0.879806761910   -0.328777466414
 C    0.075426650384    1.702565731738   -0.325635595193
 H    0.266947490266    2.777622704237   -0.328140193735
 C    1.079009872605   -0.539463699816   -0.327759797530
 O    2.122753119923   -1.192705589877   -0.330240638842
 N   -0.194828216076   -1.081603331409   -0.317146563400
 C   -1.252514328889   -0.280251300534   -0.319639608228
 N   -2.484507445345   -0.884050329614   -0.365045431437
 H   -2.493441913666   -1.883744216125   -0.195474822872
 H   -3.303085189548   -0.357622010214   -0.090145306640
 C   -1.183932330455    1.161125538661   -0.323123041894
 H   -2.072456046140    1.792443129905   -0.332604995921
 H    2.104813716214    1.254454974352   -0.332083362642
LI    1.173637013408    0.875642450117    5.171206147526
