14

 N    1.160832220446    0.879820260597   -0.346605755927
 C    0.075385277543    1.702579230425   -0.343463884706
 H    0.266906117425    2.777636202924   -0.345968483248
 C    1.078968499764   -0.539450201129   -0.345588087043
 O    2.122711747082   -1.192692091190   -0.348068928355
 N   -0.194869588917   -1.081589832722   -0.334974852913
 C   -1.252555701730   -0.280237801847   -0.337467897741
 N   -2.484548818186   -0.884036830927   -0.382873720950
 H   -2.493483286507   -1.883730717438   -0.213303112385
 H   -3.303126562389   -0.357608511527   -0.107973596153
 C   -1.183973703296    1.161139037348   -0.340951331407
 H   -2.072497418981    1.792456628592   -0.350433285434
 H    2.104772343373    1.254468473039   -0.349911652155
LI    1.174291827119    0.875428804524    5.453376964229
