14

 N    1.160818429499    0.879824760159   -0.352548519098
 C    0.075371486596    1.702583729987   -0.349406647877
 H    0.266892326478    2.777640702486   -0.351911246419
 C    1.078954708817   -0.539445701567   -0.351530850214
 O    2.122697956135   -1.192687591628   -0.354011691526
 N   -0.194883379864   -1.081585333160   -0.340917616084
 C   -1.252569492677   -0.280233302285   -0.343410660912
 N   -2.484562609133   -0.884032331365   -0.388816484121
 H   -2.493497077454   -1.883726217876   -0.219245875556
 H   -3.303140353336   -0.357604011965   -0.113916359324
 C   -1.183987494243    1.161143536910   -0.346894094578
 H   -2.072511209928    1.792461128154   -0.356376048605
 H    2.104758552426    1.254472972601   -0.355854415326
LI    1.174510098356    0.875357589326    5.547433903129
