14

 N    1.160790847605    0.879833759284   -0.364434045439
 C    0.075343904702    1.702592729112   -0.361292174218
 H    0.266864744584    2.777649701611   -0.363796772760
 C    1.078927126923   -0.539436702442   -0.363416376555
 O    2.122670374241   -1.192678592503   -0.365897217867
 N   -0.194910961758   -1.081576334035   -0.352803142425
 C   -1.252597074571   -0.280224303160   -0.355296187253
 N   -2.484590191027   -0.884023332240   -0.400702010462
 H   -2.493524659348   -1.883717218751   -0.231131401897
 H   -3.303167935230   -0.357595012840   -0.125801885665
 C   -1.184015076137    1.161152536035   -0.358779620919
 H   -2.072538791822    1.792470127279   -0.368261574946
 H    2.104730970532    1.254481971726   -0.367739941667
LI    1.174946640830    0.875215158931    5.735547780931
