14

 N    1.160735683816    0.879851757533   -0.388205098123
 C    0.075288740913    1.702610727361   -0.385063226902
 H    0.266809580795    2.777667699860   -0.387567825444
 C    1.078871963134   -0.539418704193   -0.387187429239
 O    2.122615210452   -1.192660594254   -0.389668270551
 N   -0.194966125547   -1.081558335786   -0.376574195109
 C   -1.252652238360   -0.280206304911   -0.379067239937
 N   -2.484645354816   -0.884005333991   -0.424473063146
 H   -2.493579823137   -1.883699220502   -0.254902454581
 H   -3.303223099019   -0.357577014591   -0.149572938349
 C   -1.184070239926    1.161170534284   -0.382550673603
 H   -2.072593955611    1.792488125528   -0.392032627630
 H    2.104675806743    1.254499969975   -0.391510994351
LI    1.175819725777    0.874930298140    6.111775536534
