14

 N    1.160721892869    0.879856257095   -0.394147861294
 C    0.075274949966    1.702615226923   -0.391005990073
 H    0.266795789848    2.777672199422   -0.393510588615
 C    1.078858172187   -0.539414204631   -0.393130192410
 O    2.122601419505   -1.192656094692   -0.395611033722
 N   -0.194979916494   -1.081553836224   -0.382516958280
 C   -1.252666029307   -0.280201805349   -0.385010003108
 N   -2.484659145763   -0.884000834429   -0.430415826317
 H   -2.493593614084   -1.883694720940   -0.260845217752
 H   -3.303236889966   -0.357572515029   -0.155515701520
 C   -1.184084030873    1.161175033846   -0.388493436774
 H   -2.072607746558    1.792492625090   -0.397975390801
 H    2.104662015796    1.254504469537   -0.397453757522
LI    1.176037997014    0.874859082943    6.205832475435
