14

 N    1.160639147187    0.879883254469   -0.429804440319
 C    0.075192204284    1.702642224297   -0.426662569098
 H    0.266713044166    2.777699196796   -0.429167167640
 C    1.078775426505   -0.539387207257   -0.428786771435
 O    2.122518673823   -1.192629097318   -0.431267612747
 N   -0.195062662176   -1.081526838850   -0.418173537305
 C   -1.252748774989   -0.280174807975   -0.420666582133
 N   -2.484741891445   -0.883973837055   -0.466072405342
 H   -2.493676359766   -1.883667723566   -0.296501796777
 H   -3.303319635648   -0.357545517655   -0.191172280545
 C   -1.184166776555    1.161202031220   -0.424150015799
 H   -2.072690492240    1.792519622464   -0.433631969826
 H    2.104579270114    1.254531466911   -0.433110336547
LI    1.177347624436    0.874431791757    6.770174108839
