14

 N    1.160583983398    0.879901252718   -0.453575493003
 C    0.075137040495    1.702660222546   -0.450433621782
 H    0.266657880377    2.777717195045   -0.452938220324
 C    1.078720262716   -0.539369209008   -0.452557824119
 O    2.122463510034   -1.192611099069   -0.455038665431
 N   -0.195117825965   -1.081508840601   -0.441944589989
 C   -1.252803938778   -0.280156809726   -0.444437634817
 N   -2.484797055234   -0.883955838806   -0.489843458026
 H   -2.493731523555   -1.883649725317   -0.320272849461
 H   -3.303374799437   -0.357527519406   -0.214943333229
 C   -1.184221940344    1.161220029469   -0.447921068483
 H   -2.072745656029    1.792537620713   -0.457403022510
 H    2.104524106325    1.254549465160   -0.456881389231
LI    1.178220709383    0.874146930967    7.146401864442
