14

 N    1.160556401504    0.879910251843   -0.465461019344
 C    0.075109458601    1.702669221671   -0.462319148123
 H    0.266630298483    2.777726194170   -0.464823746665
 C    1.078692680822   -0.539360209883   -0.464443350460
 O    2.122435928140   -1.192602099944   -0.466924191772
 N   -0.195145407859   -1.081499841476   -0.453830116330
 C   -1.252831520672   -0.280147810601   -0.456323161158
 N   -2.484824637128   -0.883946839681   -0.501728984367
 H   -2.493759105449   -1.883640726192   -0.332158375802
 H   -3.303402381331   -0.357518520281   -0.226828859570
 C   -1.184249522238    1.161229028594   -0.459806594824
 H   -2.072773237923    1.792546619838   -0.469288548851
 H    2.104496524431    1.254558464285   -0.468766915572
LI    1.178657251857    0.874004500571    7.334515742244
