14

 N    1.160528819610    0.879919250967   -0.477346545686
 C    0.075081876707    1.702678220795   -0.474204674465
 H    0.266602716589    2.777735193294   -0.476709273007
 C    1.078665098928   -0.539351210759   -0.476328876802
 O    2.122408346246   -1.192593100820   -0.478809718114
 N   -0.195172989753   -1.081490842352   -0.465715642672
 C   -1.252859102566   -0.280138811477   -0.468208687500
 N   -2.484852219022   -0.883937840557   -0.513614510709
 H   -2.493786687343   -1.883631727068   -0.344043902144
 H   -3.303429963225   -0.357509521157   -0.238714385912
 C   -1.184277104132    1.161238027718   -0.471692121166
 H   -2.072800819817    1.792555618962   -0.481174075193
 H    2.104468942537    1.254567463409   -0.480652441914
LI    1.179093794331    0.873862070176    7.522629620046
