14

 N    1.160501237716    0.879928250092   -0.489232072028
 C    0.075054294813    1.702687219920   -0.486090200807
 H    0.266575134695    2.777744192419   -0.488594799349
 C    1.078637517034   -0.539342211634   -0.488214403144
 O    2.122380764352   -1.192584101695   -0.490695244456
 N   -0.195200571647   -1.081481843227   -0.477601169014
 C   -1.252886684460   -0.280129812352   -0.480094213842
 N   -2.484879800916   -0.883928841432   -0.525500037051
 H   -2.493814269237   -1.883622727943   -0.355929428486
 H   -3.303457545119   -0.357500522032   -0.250599912254
 C   -1.184304686026    1.161247026843   -0.483577647508
 H   -2.072828401711    1.792564618087   -0.493059601535
 H    2.104441360643    1.254576462534   -0.492537968256
LI    1.179530336805    0.873719639781    7.710743497847
