14

 N    1.160432282980    0.879950747903   -0.518945887882
 C    0.074985340077    1.702709717731   -0.515804016661
 H    0.266506179959    2.777766690230   -0.518308615203
 C    1.078568562298   -0.539319713823   -0.517928218998
 O    2.122311809616   -1.192561603884   -0.520409060310
 N   -0.195269526383   -1.081459345416   -0.507314984868
 C   -1.252955639196   -0.280107314541   -0.509808029696
 N   -2.484948755652   -0.883906343621   -0.555213852905
 H   -2.493883223973   -1.883600230132   -0.385643244340
 H   -3.303526499855   -0.357478024221   -0.280313728108
 C   -1.184373640762    1.161269524654   -0.513291463362
 H   -2.072897356447    1.792587115898   -0.522773417389
 H    2.104372405907    1.254598960345   -0.522251784110
LI    1.180621692990    0.873363563793    8.181028192351
