14

 N    1.160418492033    0.879955247465   -0.524888651053
 C    0.074971549130    1.702714217293   -0.521746779832
 H    0.266492389012    2.777771189792   -0.524251378374
 C    1.078554771351   -0.539315214261   -0.523870982169
 O    2.122298018669   -1.192557104322   -0.526351823481
 N   -0.195283317330   -1.081454845854   -0.513257748039
 C   -1.252969430143   -0.280102814979   -0.515750792867
 N   -2.484962546599   -0.883901844059   -0.561156616076
 H   -2.493897014920   -1.883595730570   -0.391586007511
 H   -3.303540290802   -0.357473524659   -0.286256491279
 C   -1.184387431709    1.161274024216   -0.519234226533
 H   -2.072911147394    1.792591615460   -0.528716180560
 H    2.104358614960    1.254603459907   -0.528194547281
LI    1.180839964226    0.873292348595    8.275085131252
