14

 N    1.160404701086    0.879959747028   -0.530831414224
 C    0.074957758183    1.702718716856   -0.527689543003
 H    0.266478598065    2.777775689355   -0.530194141545
 C    1.078540980404   -0.539310714698   -0.529813745340
 O    2.122284227722   -1.192552604759   -0.532294586652
 N   -0.195297108277   -1.081450346291   -0.519200511210
 C   -1.252983221090   -0.280098315416   -0.521693556038
 N   -2.484976337546   -0.883897344496   -0.567099379247
 H   -2.493910805867   -1.883591231007   -0.397528770682
 H   -3.303554081749   -0.357469025096   -0.292199254450
 C   -1.184401222656    1.161278523779   -0.525176989704
 H   -2.072924938341    1.792596115023   -0.534658943731
 H    2.104344824013    1.254607959470   -0.534137310452
LI    1.181058235463    0.873221133398    8.369142070152
