14

 N    1.160390910139    0.879964246590   -0.536774177395
 C    0.074943967236    1.702723216418   -0.533632306174
 H    0.266464807118    2.777780188917   -0.536136904716
 C    1.078527189457   -0.539306215136   -0.535756508511
 O    2.122270436775   -1.192548105197   -0.538237349823
 N   -0.195310899224   -1.081445846729   -0.525143274381
 C   -1.252997012037   -0.280093815854   -0.527636319209
 N   -2.484990128493   -0.883892844934   -0.573042142418
 H   -2.493924596814   -1.883586731445   -0.403471533853
 H   -3.303567872696   -0.357464525534   -0.298142017621
 C   -1.184415013603    1.161283023341   -0.531119752875
 H   -2.072938729288    1.792600614585   -0.540601706902
 H    2.104331033066    1.254612459032   -0.540080073623
LI    1.181276506700    0.873149918200    8.463199009053
