14

 N    1.160377119192    0.879968746152   -0.542716940566
 C    0.074930176289    1.702727715980   -0.539575069345
 H    0.266451016171    2.777784688479   -0.542079667887
 C    1.078513398510   -0.539301715574   -0.541699271682
 O    2.122256645828   -1.192543605635   -0.544180112994
 N   -0.195324690171   -1.081441347167   -0.531086037552
 C   -1.253010802984   -0.280089316292   -0.533579082380
 N   -2.485003919440   -0.883888345372   -0.578984905589
 H   -2.493938387761   -1.883582231883   -0.409414297024
 H   -3.303581663643   -0.357460025972   -0.304084780792
 C   -1.184428804550    1.161287522903   -0.537062516046
 H   -2.072952520235    1.792605114147   -0.546544470073
 H    2.104317242119    1.254616958594   -0.546022836794
LI    1.181494777937    0.873078703002    8.557255947954
