14

 N    1.160349537298    0.879977745277   -0.554602466908
 C    0.074902594395    1.702736715105   -0.551460595687
 H    0.266423434277    2.777793687604   -0.553965194229
 C    1.078485816616   -0.539292716449   -0.553584798024
 O    2.122229063934   -1.192534606510   -0.556065639336
 N   -0.195352272065   -1.081432348042   -0.542971563894
 C   -1.253038384878   -0.280080317167   -0.545464608722
 N   -2.485031501334   -0.883879346247   -0.590870431931
 H   -2.493965969655   -1.883573232758   -0.421299823366
 H   -3.303609245537   -0.357451026847   -0.315970307134
 C   -1.184456386444    1.161296522028   -0.548948042388
 H   -2.072980102129    1.792614113272   -0.558429996415
 H    2.104289660225    1.254625957719   -0.557908363136
LI    1.181931320411    0.872936272607    8.745369825755
