14

 N    1.160280582562    0.880000243088   -0.584316282762
 C    0.074833639659    1.702759212916   -0.581174411541
 H    0.266354479541    2.777816185415   -0.583679010083
 C    1.078416861880   -0.539270218638   -0.583298613878
 O    2.122160109198   -1.192512108699   -0.585779455190
 N   -0.195421226801   -1.081409850231   -0.572685379748
 C   -1.253107339614   -0.280057819356   -0.575178424576
 N   -2.485100456070   -0.883856848436   -0.620584247785
 H   -2.494034924391   -1.883550734947   -0.451013639220
 H   -3.303678200273   -0.357428529036   -0.345684122988
 C   -1.184525341180    1.161319019839   -0.578661858242
 H   -2.073049056865    1.792636611083   -0.588143812269
 H    2.104220705489    1.254648455530   -0.587622178990
LI    1.183022676596    0.872580196619    9.215654520259
