14

 N    0.560908915025    0.426076245593   -0.545739209366
 C   -0.524538027878    1.248835215421   -0.542597338145
 H   -0.333017187996    2.323892187920   -0.545101936687
 C    0.479045194343   -0.993194216133   -0.544721540482
 O    1.522788441661   -1.646436106194   -0.547202381794
 N   -0.794792894338   -1.535333847726   -0.534108306352
 C   -1.852479007151   -0.733981816851   -0.536601351180
 N   -3.084472123607   -1.337780845931   -0.582007174389
 H   -3.093406591928   -2.337474732442   -0.412436565824
 H   -3.903049867810   -0.811352526531   -0.307107049592
 C   -1.783897008717    0.707395022344   -0.540084784846
 H   -2.672420724402    1.338712613588   -0.549566738873
 H    1.504849037952    0.800724458035   -0.549045105594
CS    0.563229536865    0.425319097994    0.454257811350
