14

 N    0.560782485461    0.426117495675   -0.600219945892
 C   -0.524664457442    1.248876465503   -0.597078074671
 H   -0.333143617560    2.323933438002   -0.599582673213
 C    0.478918764779   -0.993152966051   -0.599202277008
 O    1.522662012097   -1.646394856112   -0.601683118320
 N   -0.794919323902   -1.535292597644   -0.588589042878
 C   -1.852605436715   -0.733940566769   -0.591082087706
 N   -3.084598553171   -1.337739595849   -0.636487910915
 H   -3.093533021492   -2.337433482360   -0.466917302350
 H   -3.903176297374   -0.811311276449   -0.361587786118
 C   -1.784023438281    0.707436272426   -0.594565521372
 H   -2.672547153966    1.338753863670   -0.604047475399
 H    1.504722608388    0.800765708117   -0.603525842120
CS    0.563335169485    0.425284633316    0.499776776897
