14

 N    0.560529626334    0.426199995838   -0.709181418942
 C   -0.524917316569    1.248958965666   -0.706039547721
 H   -0.333396476687    2.324015938165   -0.708544146263
 C    0.478665905652   -0.993070465888   -0.708163750058
 O    1.522409152970   -1.646312355949   -0.710644591370
 N   -0.795172183029   -1.535210097481   -0.697550515928
 C   -1.852858295842   -0.733858066606   -0.700043560756
 N   -3.084851412298   -1.337657095686   -0.745449383965
 H   -3.093785880619   -2.337350982197   -0.575878775400
 H   -3.903429156501   -0.811228776286   -0.470549259168
 C   -1.784276297408    0.707518772589   -0.703526994422
 H   -2.672800013093    1.338836363833   -0.713008948449
 H    1.504469749261    0.800848208280   -0.712487315170
CS    0.563546434726    0.425215703960    0.590814707989
