14

 N    0.560276767206    0.426282496002   -0.818142891993
 C   -0.525170175697    1.249041465830   -0.815001020772
 H   -0.333649335815    2.324098438329   -0.817505619314
 C    0.478413046524   -0.992987965724   -0.817125223109
 O    1.522156293842   -1.646229855785   -0.819606064421
 N   -0.795425042157   -1.535127597317   -0.806511988979
 C   -1.853111154970   -0.733775566442   -0.809005033807
 N   -3.085104271426   -1.337574595522   -0.854410857016
 H   -3.094038739747   -2.337268482033   -0.684840248451
 H   -3.903682015629   -0.811146276122   -0.579510732219
 C   -1.784529156536    0.707601272753   -0.812488467473
 H   -2.673052872221    1.338918863997   -0.821970421500
 H    1.504216890133    0.800930708444   -0.821448788221
CS    0.563757699967    0.425146774604    0.681852639081
