14

 N    0.560150337643    0.426323746084   -0.872623628519
 C   -0.525296605260    1.249082715912   -0.869481757298
 H   -0.333775765378    2.324139688411   -0.871986355840
 C    0.478286616961   -0.992946715642   -0.871605959635
 O    1.522029864279   -1.646188605703   -0.874086800947
 N   -0.795551471720   -1.535086347235   -0.860992725505
 C   -1.853237584533   -0.733734316360   -0.863485770333
 N   -3.085230700989   -1.337533345440   -0.908891593542
 H   -3.094165169310   -2.337227231951   -0.739320984977
 H   -3.903808445192   -0.811105026040   -0.633991468745
 C   -1.784655586099    0.707642522835   -0.866969203999
 H   -2.673179301784    1.338960114079   -0.876451158026
 H    1.504090460570    0.800971958526   -0.875929524747
CS    0.563863332587    0.425112309925    0.727371604628
