14

 N    0.559644619388    0.426488746411   -1.090546574620
 C   -0.525802323515    1.249247716239   -1.087404703399
 H   -0.334281483633    2.324304688738   -1.089909301941
 C    0.477780898706   -0.992781715315   -1.089528905736
 O    1.521524146024   -1.646023605376   -1.092009747048
 N   -0.796057189975   -1.534921346908   -1.078915671606
 C   -1.853743302788   -0.733569316033   -1.081408716434
 N   -3.085736419244   -1.337368345113   -1.126814539643
 H   -3.094670887565   -2.337062231624   -0.957243931078
 H   -3.904314163447   -0.810940025713   -0.851914414846
 C   -1.785161304354    0.707807523162   -1.084892150100
 H   -2.673685020039    1.339125114406   -1.094374104127
 H    1.503584742315    0.801136958853   -1.093852470848
CS    0.564285863068    0.424974451213    0.909447466813
