14

 N    0.559265330697    0.426612496656   -1.253988784196
 C   -0.526181612206    1.249371466484   -1.250846912975
 H   -0.334660772324    2.324428438983   -1.253351511517
 C    0.477401610015   -0.992657965070   -1.252971115312
 O    1.521144857333   -1.645899855131   -1.255451956624
 N   -0.796436478666   -1.534797596663   -1.242357881182
 C   -1.854122591479   -0.733445565788   -1.244850926010
 N   -3.086115707935   -1.337244594868   -1.290256749219
 H   -3.095050176256   -2.336938481379   -1.120686140654
 H   -3.904693452138   -0.810816275468   -1.015356624422
 C   -1.785540593045    0.707931273407   -1.248334359676
 H   -2.674064308730    1.339248864651   -1.257816313703
 H    1.503205453624    0.801260709098   -1.257294680424
CS    0.564602760929    0.424871057178    1.046004363451
