14

 N    0.559012471569    0.426694996819   -1.362950257247
 C   -0.526434471334    1.249453966647   -1.359808386026
 H   -0.334913631452    2.324510939146   -1.362312984568
 C    0.477148750887   -0.992575464907   -1.361932588363
 O    1.520891998205   -1.645817354968   -1.364413429675
 N   -0.796689337794   -1.534715096500   -1.351319354233
 C   -1.854375450607   -0.733363065625   -1.353812399061
 N   -3.086368567063   -1.337162094705   -1.399218222270
 H   -3.095303035384   -2.336855981216   -1.229647613705
 H   -3.904946311266   -0.810733775305   -1.124318097473
 C   -1.785793452173    0.708013773570   -1.357295832727
 H   -2.674317167858    1.339331364814   -1.366777786754
 H    1.502952594496    0.801343209261   -1.366256153475
CS    0.564814026170    0.424802127822    1.137042294544
