14

 N    0.558886042005    0.426736246901   -1.417430993773
 C   -0.526560900898    1.249495216729   -1.414289122552
 H   -0.335040061016    2.324552189228   -1.416793721094
 C    0.477022321323   -0.992534214825   -1.416413324889
 O    1.520765568641   -1.645776104886   -1.418894166201
 N   -0.796815767358   -1.534673846418   -1.405800090759
 C   -1.854501880171   -0.733321815543   -1.408293135587
 N   -3.086494996627   -1.337120844623   -1.453698958796
 H   -3.095429464948   -2.336814731134   -1.284128350231
 H   -3.905072740830   -0.810692525223   -1.178798833999
 C   -1.785919881737    0.708055023652   -1.411776569253
 H   -2.674443597422    1.339372614896   -1.421258523280
 H    1.502826164932    0.801384459343   -1.420736890001
CS    0.564919658790    0.424767663144    1.182561260090
