14

 N    0.558759612442    0.426777496983   -1.471911730298
 C   -0.526687330461    1.249536466811   -1.468769859077
 H   -0.335166490579    2.324593439310   -1.471274457619
 C    0.476895891760   -0.992492964743   -1.470894061414
 O    1.520639139078   -1.645734854804   -1.473374902726
 N   -0.796942196921   -1.534632596336   -1.460280827284
 C   -1.854628309734   -0.733280565461   -1.462773872112
 N   -3.086621426190   -1.337079594541   -1.508179695321
 H   -3.095555894511   -2.336773481052   -1.338609086756
 H   -3.905199170393   -0.810651275141   -1.233279570524
 C   -1.786046311300    0.708096273734   -1.466257305778
 H   -2.674570026985    1.339413864978   -1.475739259805
 H    1.502699735369    0.801425709425   -1.475217626526
CS    0.565025291410    0.424733198466    1.228080225636
