14

 N    0.558127464623    0.426983747392   -1.744315412925
 C   -0.527319478280    1.249742717220   -1.741173541704
 H   -0.335798638398    2.324799689719   -1.743678140246
 C    0.476263743941   -0.992286714334   -1.743297744041
 O    1.520006991259   -1.645528604395   -1.745778585353
 N   -0.797574344740   -1.534426345927   -1.732684509911
 C   -1.855260457553   -0.733074315052   -1.735177554739
 N   -3.087253574009   -1.336873344132   -1.780583377948
 H   -3.096188042330   -2.336567230643   -1.611012769383
 H   -3.905831318212   -0.810445024732   -1.505683253151
 C   -1.786678459119    0.708302524143   -1.738660988405
 H   -2.675202174804    1.339620115387   -1.748142942432
 H    1.502067587550    0.801631959834   -1.747621309153
CS    0.565553454512    0.424560875075    1.455675053368
