14

 N    0.557874605496    0.427066247555   -1.853276885976
 C   -0.527572337407    1.249825217383   -1.850135014755
 H   -0.336051497525    2.324882189882   -1.852639613297
 C    0.476010884814   -0.992204214171   -1.852259217092
 O    1.519754132132   -1.645446104232   -1.854740058404
 N   -0.797827203867   -1.534343845764   -1.841645982962
 C   -1.855513316680   -0.732991814889   -1.844139027790
 N   -3.087506433136   -1.336790843969   -1.889544850999
 H   -3.096440901457   -2.336484730480   -1.719974242434
 H   -3.906084177339   -0.810362524569   -1.614644726202
 C   -1.786931318246    0.708385024306   -1.847622461456
 H   -2.675455033931    1.339702615550   -1.857104415483
 H    1.501814728423    0.801714459997   -1.856582782204
CS    0.565764719752    0.424491945719    1.546712984460
