14

 N    0.557242457677    0.427272497964   -2.125680568603
 C   -0.528204485226    1.250031467792   -2.122538697382
 H   -0.336683645344    2.325088440291   -2.125043295924
 C    0.475378736995   -0.991997963762   -2.124662899719
 O    1.519121984313   -1.645239853823   -2.127143741031
 N   -0.798459351686   -1.534137595355   -2.114049665589
 C   -1.856145464499   -0.732785564480   -2.116542710417
 N   -3.088138580955   -1.336584593560   -2.161948533626
 H   -3.097073049276   -2.336278480071   -1.992377925061
 H   -3.906716325158   -0.810156274160   -1.887048408829
 C   -1.787563466065    0.708591274715   -2.120026144083
 H   -2.676087181750    1.339908865959   -2.129508098110
 H    1.501182580604    0.801920710406   -2.128986464831
CS    0.566292882854    0.424319622328    1.774307812191
