14

 N    0.557116028113    0.427313748045   -2.180161305128
 C   -0.528330914790    1.250072717873   -2.177019433907
 H   -0.336810074908    2.325129690372   -2.179524032449
 C    0.475252307431   -0.991956713681   -2.179143636244
 O    1.518995554749   -1.645198603742   -2.181624477556
 N   -0.798585781250   -1.534096345274   -2.168530402114
 C   -1.856271894063   -0.732744314399   -2.171023446942
 N   -3.088265010519   -1.336543343479   -2.216429270151
 H   -3.097199478840   -2.336237229990   -2.046858661586
 H   -3.906842754722   -0.810115024079   -1.941529145354
 C   -1.787689895629    0.708632524796   -2.174506880608
 H   -2.676213611314    1.339950116040   -2.183988834635
 H    1.501056151040    0.801961960487   -2.183467201356
CS    0.566398515474    0.424285157650    1.819826777738
