14

 N    0.556989598550    0.427354998127   -2.234642041654
 C   -0.528457344353    1.250113967955   -2.231500170433
 H   -0.336936504471    2.325170940454   -2.234004768975
 C    0.475125877868   -0.991915463599   -2.233624372770
 O    1.518869125186   -1.645157353660   -2.236105214082
 N   -0.798712210813   -1.534055095192   -2.223011138640
 C   -1.856398323626   -0.732703064317   -2.225504183468
 N   -3.088391440082   -1.336502093397   -2.270910006677
 H   -3.097325908403   -2.336195979908   -2.101339398112
 H   -3.906969184285   -0.810073773997   -1.996009881880
 C   -1.787816325192    0.708673774878   -2.228987617134
 H   -2.676340040877    1.339991366122   -2.238469571161
 H    1.500929721477    0.802003210569   -2.237947937882
CS    0.566504148094    0.424250692972    1.865345743284
