14

 N    0.556483880295    0.427519998454   -2.452564987755
 C   -0.528963062608    1.250278968282   -2.449423116534
 H   -0.337442222726    2.325335940781   -2.451927715076
 C    0.474620159613   -0.991750463272   -2.451547318871
 O    1.518363406931   -1.644992353333   -2.454028160183
 N   -0.799217929068   -1.533890094865   -2.440934084741
 C   -1.856904041881   -0.732538063990   -2.443427129569
 N   -3.088897158337   -1.336337093070   -2.488832952778
 H   -3.097831626658   -2.336030979581   -2.319262344213
 H   -3.907474902540   -0.809908773670   -2.213932827981
 C   -1.788322043447    0.708838775205   -2.446910563235
 H   -2.676845759132    1.340156366449   -2.456392517262
 H    1.500424003222    0.802168210896   -2.455870883983
CS    0.566926678575    0.424112834259    2.047421605469
