14

 N    0.556357450731    0.427561248536   -2.507045724281
 C   -0.529089492172    1.250320218364   -2.503903853060
 H   -0.337568652290    2.325377190863   -2.506408451602
 C    0.474493730049   -0.991709213190   -2.506028055397
 O    1.518236977367   -1.644951103251   -2.508508896709
 N   -0.799344358632   -1.533848844783   -2.495414821267
 C   -1.857030471445   -0.732496813908   -2.497907866095
 N   -3.089023587901   -1.336295842988   -2.543313689304
 H   -3.097958056222   -2.335989729499   -2.373743080739
 H   -3.907601332104   -0.809867523588   -2.268413564507
 C   -1.788448473011    0.708880025287   -2.501391299761
 H   -2.676972188696    1.340197616531   -2.510873253788
 H    1.500297573658    0.802209460978   -2.510351620509
CS    0.567032311196    0.424078369581    2.092940571015
