14

 N    0.556231021167    0.427602498618   -2.561526460806
 C   -0.529215921736    1.250361468446   -2.558384589585
 H   -0.337695081854    2.325418440945   -2.560889188127
 C    0.474367300485   -0.991667963108   -2.560508791922
 O    1.518110547803   -1.644909853169   -2.562989633234
 N   -0.799470788196   -1.533807594701   -2.549895557792
 C   -1.857156901009   -0.732455563826   -2.552388602620
 N   -3.089150017465   -1.336254592906   -2.597794425829
 H   -3.098084485786   -2.335948479417   -2.428223817264
 H   -3.907727761668   -0.809826273506   -2.322894301032
 C   -1.788574902575    0.708921275369   -2.555872036286
 H   -2.677098618260    1.340238866613   -2.565353990313
 H    1.500171144094    0.802250711060   -2.564832357034
CS    0.567137943816    0.424043904903    2.138459536561
