14

 N    0.555978162040    0.427684998781   -2.670487933857
 C   -0.529468780863    1.250443968609   -2.667346062636
 H   -0.337947940981    2.325500941108   -2.669850661178
 C    0.474114441358   -0.991585462945   -2.669470264973
 O    1.517857688676   -1.644827353006   -2.671951106285
 N   -0.799723647323   -1.533725094538   -2.658857030843
 C   -1.857409760136   -0.732373063663   -2.661350075671
 N   -3.089402876592   -1.336172092743   -2.706755898880
 H   -3.098337344913   -2.335865979254   -2.537185290315
 H   -3.907980620795   -0.809743773343   -2.431855774083
 C   -1.788827761702    0.709003775532   -2.664833509337
 H   -2.677351477387    1.340321366776   -2.674315463364
 H    1.499918284967    0.802333211223   -2.673793830085
CS    0.567349209057    0.423974975547    2.229497467654
