14

 N    0.555725302912    0.427767498945   -2.779449406908
 C   -0.529721639991    1.250526468773   -2.776307535687
 H   -0.338200800109    2.325583441272   -2.778812134229
 C    0.473861582230   -0.991502962781   -2.778431738024
 O    1.517604829548   -1.644744852842   -2.780912579336
 N   -0.799976506451   -1.533642594374   -2.767818503894
 C   -1.857662619264   -0.732290563499   -2.770311548722
 N   -3.089655735720   -1.336089592579   -2.815717371931
 H   -3.098590204041   -2.335783479090   -2.646146763366
 H   -3.908233479923   -0.809661273179   -2.540817247134
 C   -1.789080620830    0.709086275696   -2.773794982388
 H   -2.677604336515    1.340403866940   -2.783276936415
 H    1.499665425839    0.802415711387   -2.782755303136
CS    0.567560474297    0.423906046190    2.320535398746
