14

 N    0.555598873349    0.427808749026   -2.833930143433
 C   -0.529848069554    1.250567718854   -2.830788272212
 H   -0.338327229672    2.325624691353   -2.833292870754
 C    0.473735152667   -0.991461712700   -2.832912474549
 O    1.517478399985   -1.644703602761   -2.835393315861
 N   -0.800102936014   -1.533601344293   -2.822299240419
 C   -1.857789048827   -0.732249313418   -2.824792285247
 N   -3.089782165283   -1.336048342498   -2.870198108456
 H   -3.098716633604   -2.335742229009   -2.700627499891
 H   -3.908359909486   -0.809620023098   -2.595297983659
 C   -1.789207050393    0.709127525777   -2.828275718913
 H   -2.677730766078    1.340445117021   -2.837757672940
 H    1.499538996276    0.802456961468   -2.837236039661
CS    0.567666106918    0.423871581512    2.366054364292
