14

 N    0.555346014221    0.427891249190   -2.942891616484
 C   -0.530100928682    1.250650219018   -2.939749745263
 H   -0.338580088800    2.325707191517   -2.942254343805
 C    0.473482293539   -0.991379212536   -2.941873947600
 O    1.517225540857   -1.644621102597   -2.944354788912
 N   -0.800355795142   -1.533518844129   -2.931260713470
 C   -1.858041907955   -0.732166813254   -2.933753758298
 N   -3.090035024411   -1.335965842334   -2.979159581507
 H   -3.098969492732   -2.335659728845   -2.809588972942
 H   -3.908612768614   -0.809537522934   -2.704259456710
 C   -1.789459909521    0.709210025941   -2.937237191964
 H   -2.677983625206    1.340527617185   -2.946719145991
 H    1.499286137148    0.802539461632   -2.946197512712
CS    0.567877372158    0.423802652156    2.457092295385
