14

 N    0.555219584658    0.427932499272   -2.997372353009
 C   -0.530227358245    1.250691469100   -2.994230481788
 H   -0.338706518363    2.325748441599   -2.996735080330
 C    0.473355863976   -0.991337962454   -2.996354684125
 O    1.517099111294   -1.644579852515   -2.998835525437
 N   -0.800482224705   -1.533477594047   -2.985741449995
 C   -1.858168337518   -0.732125563172   -2.988234494823
 N   -3.090161453974   -1.335924592252   -3.033640318032
 H   -3.099095922295   -2.335618478763   -2.864069709467
 H   -3.908739198177   -0.809496272852   -2.758740193235
 C   -1.789586339084    0.709251276023   -2.991717928489
 H   -2.678110054769    1.340568867267   -3.001199882516
 H    1.499159707585    0.802580711714   -3.000678249237
CS    0.567983004778    0.423768187478    2.502611260931
