14

 N    0.555093155094    0.427973749353   -3.051853089535
 C   -0.530353787809    1.250732719181   -3.048711218314
 H   -0.338832947927    2.325789691680   -3.051215816856
 C    0.473229434412   -0.991296712373   -3.050835420651
 O    1.516972681730   -1.644538602434   -3.053316261963
 N   -0.800608654269   -1.533436343966   -3.040222186521
 C   -1.858294767082   -0.732084313091   -3.042715231349
 N   -3.090287883538   -1.335883342171   -3.088121054558
 H   -3.099222351859   -2.335577228682   -2.918550445993
 H   -3.908865627741   -0.809455022771   -2.813220929761
 C   -1.789712768648    0.709292526104   -3.046198665015
 H   -2.678236484333    1.340610117348   -3.055680619042
 H    1.499033278021    0.802621961795   -3.055158985763
CS    0.568088637399    0.423733722800    2.548130226477
