14

 N    0.554461007275    0.428179999762   -3.324256772162
 C   -0.530985935628    1.250938969590   -3.321114900941
 H   -0.339465095746    2.325995942089   -3.323619499483
 C    0.472597286593   -0.991090461964   -3.323239103278
 O    1.516340533911   -1.644332352025   -3.325719944590
 N   -0.801240802088   -1.533230093557   -3.312625869148
 C   -1.858926914901   -0.731878062682   -3.315118913976
 N   -3.090920031357   -1.335677091762   -3.360524737185
 H   -3.099854499678   -2.335370978273   -3.190954128620
 H   -3.909497775560   -0.809248772362   -3.085624612388
 C   -1.790344916467    0.709498776513   -3.318602347642
 H   -2.678868632152    1.340816367757   -3.328084301669
 H    1.498401130202    0.802828212204   -3.327562668390
CS    0.568616800500    0.423561399409    2.775725054209
