14

 N    0.553702429893    0.428427500252   -3.651141191314
 C   -0.531744513010    1.251186470080   -3.647999320093
 H   -0.340223673128    2.326243442579   -3.650503918635
 C    0.471838709211   -0.990842961474   -3.650123522430
 O    1.515581956529   -1.644084851535   -3.652604363742
 N   -0.801999379470   -1.532982593067   -3.639510288300
 C   -1.859685492283   -0.731630562192   -3.642003333128
 N   -3.091678608739   -1.335429591272   -3.687409156337
 H   -3.100613077060   -2.335123477783   -3.517838547772
 H   -3.910256352942   -0.809001271872   -3.412509031540
 C   -1.791103493849    0.709746277003   -3.645486766794
 H   -2.679627209534    1.341063868247   -3.654968720821
 H    1.497642552820    0.803075712694   -3.654447087542
CS    0.569250596222    0.423354611340    3.048838847486
