14

 N    0.553196711638    0.428592500579   -3.869064137416
 C   -0.532250231265    1.251351470407   -3.865922266195
 H   -0.340729391383    2.326408442906   -3.868426864737
 C    0.471332990956   -0.990677961147   -3.868046468532
 O    1.515076238274   -1.643919851208   -3.870527309844
 N   -0.802505097725   -1.532817592740   -3.857433234402
 C   -1.860191210538   -0.731465561865   -3.859926279230
 N   -3.092184326994   -1.335264590945   -3.905332102439
 H   -3.101118795315   -2.334958477456   -3.735761493874
 H   -3.910762071197   -0.808836271545   -3.630431977642
 C   -1.791609212104    0.709911277330   -3.863409712896
 H   -2.680132927789    1.341228868574   -3.872891666923
 H    1.497136834565    0.803240713021   -3.872370033644
CS    0.569673126703    0.423216752627    3.230914709671
