14

 N    0.553070282074    0.428633750661   -3.923544873941
 C   -0.532376660829    1.251392720489   -3.920403002720
 H   -0.340855820947    2.326449692988   -3.922907601262
 C    0.471206561392   -0.990636711065   -3.922527205057
 O    1.514949808710   -1.643878601126   -3.925008046369
 N   -0.802631527289   -1.532776342658   -3.911913970927
 C   -1.860317640102   -0.731424311783   -3.914407015755
 N   -3.092310756558   -1.335223340863   -3.959812838964
 H   -3.101245224879   -2.334917227374   -3.790242230399
 H   -3.910888500761   -0.808795021463   -3.684912714167
 C   -1.791735641668    0.709952527412   -3.917890449421
 H   -2.680259357353    1.341270118656   -3.927372403448
 H    1.497010405001    0.803281963103   -3.926850770169
CS    0.569778759323    0.423182287949    3.276433675217
