14

 N    0.552438134256    0.428840001070   -4.195948556568
 C   -0.533008808647    1.251598970898   -4.192806685347
 H   -0.341487968765    2.326655943397   -4.195311283889
 C    0.470574413574   -0.990430460656   -4.194930887684
 O    1.514317660892   -1.643672350717   -4.197411728996
 N   -0.803263675107   -1.532570092249   -4.184317653554
 C   -1.860949787920   -0.731218061374   -4.186810698382
 N   -3.092942904376   -1.335017090454   -4.232216521591
 H   -3.101877372697   -2.334710976965   -4.062645913026
 H   -3.911520648579   -0.808588771054   -3.957316396794
 C   -1.792367789486    0.710158777821   -4.190294132048
 H   -2.680891505171    1.341476369065   -4.199776086075
 H    1.496378257183    0.803488213512   -4.199254452796
CS    0.570306922425    0.423009964559    3.504028502949
