14

 N    0.552058845565    0.428963751315   -4.359390766144
 C   -0.533388097338    1.251722721143   -4.356248894923
 H   -0.341867257456    2.326779693642   -4.358753493465
 C    0.470195124883   -0.990306710411   -4.358373097260
 O    1.513938372201   -1.643548600472   -4.360853938572
 N   -0.803642963798   -1.532446342004   -4.347759863130
 C   -1.861329076611   -0.731094311129   -4.350252907958
 N   -3.093322193067   -1.334893340209   -4.395658731167
 H   -3.102256661388   -2.334587226720   -4.226088122602
 H   -3.911899937270   -0.808465020809   -4.120758606370
 C   -1.792747078177    0.710282528066   -4.353736341624
 H   -2.681270793862    1.341600119310   -4.363218295651
 H    1.495998968492    0.803611963757   -4.362696662372
CS    0.570623820286    0.422906570524    3.640585399587
