14

 N    0.551300268182    0.429211251806   -4.686275185297
 C   -0.534146674721    1.251970221634   -4.683133314076
 H   -0.342625834839    2.327027194133   -4.685637912618
 C    0.469436547500   -0.990059209920   -4.685257516413
 O    1.513179794818   -1.643301099981   -4.687738357725
 N   -0.804401541181   -1.532198841513   -4.674644282283
 C   -1.862087653994   -0.730846810638   -4.677137327111
 N   -3.094080770450   -1.334645839718   -4.722543150320
 H   -3.103015238771   -2.334339726229   -4.552972541755
 H   -3.912658514653   -0.808217520318   -4.447643025523
 C   -1.793505655560    0.710530028557   -4.680620760777
 H   -2.682029371245    1.341847619801   -4.690102714804
 H    1.495240391109    0.803859464248   -4.689581081525
CS    0.571257616008    0.422699782455    3.913699192865
