14

 N    0.550668120364    0.429417502214   -4.958678867924
 C   -0.534778822539    1.252176472042   -4.955536996703
 H   -0.343257982657    2.327233444541   -4.958041595245
 C    0.468804399682   -0.989852959512   -4.957661199040
 O    1.512547647000   -1.643094849573   -4.960142040352
 N   -0.805033688999   -1.531992591105   -4.947047964910
 C   -1.862719801812   -0.730640560230   -4.949541009738
 N   -3.094712918268   -1.334439589310   -4.994946832947
 H   -3.103647386589   -2.334133475821   -4.825376224382
 H   -3.913290662471   -0.808011269910   -4.720046708150
 C   -1.794137803378    0.710736278965   -4.953024443404
 H   -2.682661519063    1.342053870209   -4.962506397431
 H    1.494608243291    0.804065714656   -4.961984764152
CS    0.571785779109    0.422527459064    4.141294020596
