14

 N    0.550541690800    0.429458752296   -5.013159604449
 C   -0.534905252103    1.252217722124   -5.010017733228
 H   -0.343384412221    2.327274694623   -5.012522331770
 C    0.468677970118   -0.989811709430   -5.012141935565
 O    1.512421217436   -1.643053599491   -5.014622776877
 N   -0.805160118563   -1.531951341023   -5.001528701435
 C   -1.862846231376   -0.730599310148   -5.004021746263
 N   -3.094839347832   -1.334398339228   -5.049427569472
 H   -3.103773816153   -2.334092225739   -4.879856960907
 H   -3.913417092035   -0.807970019828   -4.774527444675
 C   -1.794264232942    0.710777529047   -5.007505179929
 H   -2.682787948627    1.342095120291   -5.016987133956
 H    1.494481813727    0.804106964738   -5.016465500677
CS    0.571891411729    0.422492994386    4.186812986142
