14

 N    0.550288831673    0.429541252459   -5.122121077500
 C   -0.535158111230    1.252300222287   -5.118979206279
 H   -0.343637271348    2.327357194786   -5.121483804821
 C    0.468425110991   -0.989729209267   -5.121103408616
 O    1.512168358309   -1.642971099328   -5.123584249928
 N   -0.805412977690   -1.531868840860   -5.110490174486
 C   -1.863099090503   -0.730516809985   -5.112983219314
 N   -3.095092206959   -1.334315839065   -5.158389042523
 H   -3.104026675280   -2.334009725576   -4.988818433958
 H   -3.913669951162   -0.807887519665   -4.883488917726
 C   -1.794517092069    0.710860029210   -5.116466652980
 H   -2.683040807754    1.342177620454   -5.125948607007
 H    1.494228954600    0.804189464901   -5.125426973728
CS    0.572102676970    0.422424065030    4.277850917235
