14

 N    0.549656683854    0.429747502868   -5.394524760127
 C   -0.535790259049    1.252506472696   -5.391382888906
 H   -0.344269419167    2.327563445195   -5.393887487448
 C    0.467792963172   -0.989522958858   -5.393507091243
 O    1.511536210490   -1.642764848919   -5.395987932555
 N   -0.806045125509   -1.531662590451   -5.382893857113
 C   -1.863731238322   -0.730310559576   -5.385386901941
 N   -3.095724354778   -1.334109588656   -5.430792725150
 H   -3.104658823099   -2.333803475167   -5.261222116585
 H   -3.914302098981   -0.807681269256   -5.155892600353
 C   -1.795149239888    0.711066279619   -5.388870335607
 H   -2.683672955573    1.342383870863   -5.398352289634
 H    1.493596806781    0.804395715310   -5.397830656355
CS    0.572630840071    0.422251741639    4.505445744966
