22

 H    3.099156006562   -1.288785420053   -0.768685861291
 H    2.276856006562   -1.501665420053   -2.354655861291
 H    1.654906006562   -2.361095420053   -0.899345861291
 C    2.134146006562   -1.440725420053   -1.265375861291
 S    1.026176006562   -0.016245420053   -0.973785861291
 S    0.860056006562   -0.022405420053    1.121794138709
 C    1.965096006562    1.356784579947    1.589004138709
 H    2.989196006562    1.164434579947    1.249684138709
 H    1.937206006562    1.415284579947    2.687324138709
 H    1.587046006562    2.294644579947    1.155294138709
 K   -0.916333993438    2.212244579947    0.028824138709
 K   -0.988953993438   -2.173195420053   -0.178335861291
 S   -0.236344485396    0.000056225420    1.035762541506
 S   -0.070224723553    0.006216216589   -1.059814454176
 C   -1.344319543146    1.424544393431    1.327358313422
 H   -2.309321948909    1.272599063525    0.830667562863
 H   -1.487020365218    1.485484208006    2.416631872855
 H   -0.865078842105    2.344911970709    0.961328284516
 C   -1.175262470192   -1.372970770229   -1.527021339823
 H   -2.199367112692   -1.180626239059   -1.187692119981
 H   -1.147381881410   -1.431480644263   -2.625340656010
 H   -0.797208330757   -2.310834755046   -1.093313728593
