22

 H    3.169618696176   -1.290228969162   -0.763156843587
 H    2.347318696176   -1.503108969162   -2.349126843587
 H    1.725368696176   -2.362538969162   -0.893816843587
 C    2.204608696176   -1.442168969162   -1.259846843587
 S    1.096638696176   -0.017688969162   -0.968256843587
 S    0.930518696176   -0.023848969162    1.127323156413
 C    2.035558696176    1.355341030838    1.594533156413
 H    3.059658696176    1.162991030838    1.255213156413
 H    2.007668696176    1.413841030838    2.692853156413
 H    1.657508696176    2.293201030838    1.160823156413
 K   -0.845871303824    2.210801030838    0.034353156413
 K   -0.918491303824   -2.174638969162   -0.172806843587
 S   -0.365227339774    0.002696611851    1.025649450628
 S   -0.199107577932    0.008856603020   -1.069927545055
 C   -1.473202397524    1.427184779863    1.317245222544
 H   -2.438204803288    1.275239449957    0.820554471985
 H   -1.615903219597    1.488124594438    2.406518781977
 H   -0.993961696483    2.347552357141    0.951215193638
 C   -1.304145324571   -1.370330383797   -1.537134430702
 H   -2.328249967071   -1.177985852628   -1.197805210859
 H   -1.276264735788   -1.428840257831   -2.635453746889
 H   -0.926091185136   -2.308194368614   -1.103426819471
