22

 H    3.381006765017   -1.294559616488   -0.746569790475
 H    2.558706765017   -1.507439616488   -2.332539790475
 H    1.936756765017   -2.366869616488   -0.877229790475
 C    2.415996765017   -1.446499616488   -1.243259790475
 S    1.308026765017   -0.022019616488   -0.951669790475
 S    1.141906765017   -0.028179616488    1.143910209525
 C    2.246946765017    1.351010383512    1.611120209525
 H    3.271046765017    1.158660383512    1.271800209525
 H    2.219056765017    1.409510383512    2.709440209525
 H    1.868896765017    2.288870383512    1.177410209525
 K   -0.634483234983    2.206470383512    0.050940209525
 K   -0.707103234983   -2.178969616488   -0.156219790475
 S   -0.751875902910    0.010617771146    0.995310177993
 S   -0.585756141067    0.016777762315   -1.100266817690
 C   -1.859850960660    1.435105939158    1.286905949909
 H   -2.824853366423    1.283160609252    0.790215199350
 H   -2.002551782732    1.496045753733    2.376179509342
 H   -1.380610259619    2.355473516436    0.920875921003
 C   -1.690793887706   -1.362409224502   -1.567473703337
 H   -2.714898530206   -1.170064693333   -1.228144483494
 H   -1.662913298923   -1.420919098536   -2.665793019524
 H   -1.312739748271   -2.300273209319   -1.133766092106
