22

 H    3.451469454631   -1.296003165597   -0.741040772771
 H    2.629169454631   -1.508883165597   -2.327010772771
 H    2.007219454631   -2.368313165597   -0.871700772771
 C    2.486459454631   -1.447943165597   -1.237730772771
 S    1.378489454631   -0.023463165597   -0.946140772771
 S    1.212369454631   -0.029623165597    1.149439227229
 C    2.317409454631    1.349566834403    1.616649227229
 H    3.341509454631    1.157216834403    1.277329227229
 H    2.289519454631    1.408066834403    2.714969227229
 H    1.939359454631    2.287426834403    1.182939227229
 K   -0.564020545369    2.205026834403    0.056469227229
 K   -0.636640545369   -2.180413165597   -0.150690772771
 S   -0.880758757288    0.013258157578    0.985197087114
 S   -0.714638995445    0.019418148746   -1.110379908568
 C   -1.988733815038    1.437746325589    1.276792859031
 H   -2.953736220801    1.285800995683    0.780102108472
 H   -2.131434637111    1.498686140164    2.366066418463
 H   -1.509493113997    2.358113902867    0.910762830124
 C   -1.819676742085   -1.359768838071   -1.577586794215
 H   -2.843781384585   -1.167424306901   -1.238257574373
 H   -1.791796153302   -1.418278712105   -2.675906110402
 H   -1.441622602649   -2.297632822888   -1.143879182985
