22

 H    3.486700799438   -1.296724940152   -0.738276263919
 H    2.664400799438   -1.509604940152   -2.324246263919
 H    2.042450799438   -2.369034940152   -0.868936263919
 C    2.521690799438   -1.448664940152   -1.234966263919
 S    1.413720799438   -0.024184940152   -0.943376263919
 S    1.247600799438   -0.030344940152    1.152203736081
 C    2.352640799438    1.348845059848    1.619413736081
 H    3.376740799438    1.156495059848    1.280093736081
 H    2.324750799438    1.407345059848    2.717733736081
 H    1.974590799438    2.286705059848    1.185703736081
 K   -0.528789200562    2.204305059848    0.059233736081
 K   -0.601409200562   -2.181134940152   -0.147926263919
 S   -0.945200184477    0.014578350794    0.980140541675
 S   -0.779080422635    0.020738341962   -1.115436454007
 C   -2.053175242227    1.439066518805    1.271736313591
 H   -3.018177647991    1.287121188899    0.775045563032
 H   -2.195876064300    1.500006333380    2.361009873024
 H   -1.573934541186    2.359434096083    0.905706284685
 C   -1.884118169274   -1.358448644855   -1.582643339654
 H   -2.908222811774   -1.166104113686   -1.243314119812
 H   -1.856237580491   -1.416958518889   -2.680962655841
 H   -1.506064029839   -2.296312629672   -1.148935728424
