22

 H    3.521932144245   -1.297446714706   -0.735511755067
 H    2.699632144245   -1.510326714706   -2.321481755067
 H    2.077682144245   -2.369756714706   -0.866171755067
 C    2.556922144245   -1.449386714706   -1.232201755067
 S    1.448952144245   -0.024906714706   -0.940611755067
 S    1.282832144245   -0.031066714706    1.154968244933
 C    2.387872144245    1.348123285294    1.622178244933
 H    3.411972144245    1.155773285294    1.282858244933
 H    2.359982144245    1.406623285294    2.720498244933
 H    2.009822144245    2.285983285294    1.188468244933
 K   -0.493557855755    2.203583285294    0.061998244933
 K   -0.566177855755   -2.181856714706   -0.145161755067
 S   -1.009641611667    0.015898544009    0.975083996236
 S   -0.843521849824    0.022058535178   -1.120492999446
 C   -2.117616669417    1.440386712021    1.266679768152
 H   -3.082619075180    1.288441382115    0.769989017593
 H   -2.260317491489    1.501326526596    2.355953327585
 H   -1.638375968376    2.360754289299    0.900649739246
 C   -1.948559596463   -1.357128451639   -1.587699885094
 H   -2.972664238963   -1.164783920470   -1.248370665251
 H   -1.920679007680   -1.415638325673   -2.686019201281
 H   -1.570505457028   -2.294992436456   -1.153992273863
