22

 H    3.592394833859   -1.298890263815   -0.729982737363
 H    2.770094833859   -1.511770263815   -2.315952737363
 H    2.148144833859   -2.371200263815   -0.860642737363
 C    2.627384833859   -1.450830263815   -1.226672737363
 S    1.519414833859   -0.026350263815   -0.935082737363
 S    1.353294833859   -0.032510263815    1.160497262637
 C    2.458334833859    1.346679736185    1.627707262637
 H    3.482434833859    1.154329736185    1.288387262637
 H    2.430444833859    1.405179736185    2.726027262637
 H    2.080284833859    2.284539736185    1.193997262637
 K   -0.423095166141    2.202139736185    0.067527262637
 K   -0.495715166141   -2.183300263815   -0.139632737363
 S   -1.138524466045    0.018538930441    0.964970905358
 S   -0.972404704202    0.024698921610   -1.130606090325
 C   -2.246499523795    1.443027098452    1.256566677274
 H   -3.211501929558    1.291081768546    0.759875926715
 H   -2.389200345868    1.503966913028    2.345840236707
 H   -1.767258822754    2.363394675730    0.890536648368
 C   -2.077442450841   -1.354488065208   -1.597812975972
 H   -3.101547093342   -1.162143534038   -1.258483756130
 H   -2.049561862059   -1.412997939241   -2.696132292159
 H   -1.699388311406   -2.292352050025   -1.164105364741
