22

 H    3.733320213087   -1.301777362033   -0.718924701955
 H    2.911020213087   -1.514657362033   -2.304894701955
 H    2.289070213087   -2.374087362033   -0.849584701955
 C    2.768310213087   -1.453717362033   -1.215614701955
 S    1.660340213087   -0.029237362033   -0.924024701955
 S    1.494220213087   -0.035397362033    1.171555298045
 C    2.599260213087    1.343792637967    1.638765298045
 H    3.623360213087    1.151442637967    1.299445298045
 H    2.571370213087    1.402292637967    2.737085298045
 H    2.221210213087    2.281652637967    1.205055298045
 K   -0.282169786913    2.199252637967    0.078585298045
 K   -0.354789786913   -2.186187362033   -0.128574701955
 S   -1.396290174802    0.023819703304    0.944744723601
 S   -1.230170412959    0.029979694473   -1.150832272082
 C   -2.504265232552    1.448307871316    1.236340495517
 H   -3.469267638315    1.296362541409    0.739649744958
 H   -2.646966054624    1.509247685891    2.325614054950
 H   -2.025024531511    2.368675448594    0.870310466611
 C   -2.335208159598   -1.349207292345   -1.618039157729
 H   -3.359312802098   -1.156862761175   -1.278709937886
 H   -2.307327570816   -1.407717166378   -2.716358473916
 H   -1.957154020163   -2.287071277161   -1.184331546498
