22

 H    3.839014247508   -1.303942685696   -0.710631175399
 H    3.016714247508   -1.516822685696   -2.296601175399
 H    2.394764247508   -2.376252685696   -0.841291175399
 C    2.874004247508   -1.455882685696   -1.207321175399
 S    1.766034247508   -0.031402685696   -0.915731175399
 S    1.599914247508   -0.037562685696    1.179848824601
 C    2.704954247508    1.341627314304    1.647058824601
 H    3.729054247508    1.149277314304    1.307738824601
 H    2.677064247508    1.400127314304    2.745378824601
 H    2.326904247508    2.279487314304    1.213348824601
 K   -0.176475752492    2.197087314304    0.086878824601
 K   -0.249095752492   -2.188352685696   -0.120281175399
 S   -1.589614456370    0.027780282951    0.929575087283
 S   -1.423494694527    0.033940274120   -1.166001908399
 C   -2.697589514120    1.452268450963    1.221170859200
 H   -3.662591919883    1.300323121057    0.724480108641
 H   -2.840290336192    1.513208265538    2.310444418632
 H   -2.218348813079    2.372636028241    0.855140830293
 C   -2.528532441166   -1.345246712697   -1.633208794046
 H   -3.552637083666   -1.152902181528   -1.293879574204
 H   -2.500651852383   -1.403756586731   -2.731528110233
 H   -2.150478301731   -2.283110697514   -1.199501182816
