22

 H    4.050402316349   -1.308273333023   -0.694044122287
 H    3.228102316349   -1.521153333023   -2.280014122287
 H    2.606152316349   -2.380583333023   -0.824704122287
 C    3.085392316349   -1.460213333023   -1.190734122287
 S    1.977422316349   -0.035733333023   -0.899144122287
 S    1.811302316349   -0.041893333023    1.196435877713
 C    2.916342316349    1.337296666977    1.663645877713
 H    3.940442316349    1.144946666977    1.324325877713
 H    2.888452316349    1.395796666977    2.761965877713
 H    2.538292316349    2.275156666977    1.229935877713
 K    0.034912316349    2.192756666977    0.103465877713
 K   -0.037707683651   -2.192683333023   -0.103694122287
 S   -1.976263019505    0.035701442246    0.899235814648
 S   -1.810143257662    0.041861433415   -1.196341181034
 C   -3.084238077255    1.460189610258    1.190831586565
 H   -4.049240483018    1.308244280352    0.694140836006
 H   -3.226938899327    1.521129424833    2.280105145997
 H   -2.604997376214    2.380557187536    0.824801557658
 C   -2.915181004301   -1.337325553402   -1.663548066681
 H   -3.939285646802   -1.144981022233   -1.324218846839
 H   -2.887300415519   -1.395835427436   -2.761867382868
 H   -2.537126864866   -2.275189538219   -1.229840455451
