22

 H    4.085633661156   -1.308995107577   -0.691279613435
 H    3.263333661156   -1.521875107577   -2.277249613435
 H    2.641383661156   -2.381305107577   -0.821939613435
 C    3.120623661156   -1.460935107577   -1.187969613435
 S    2.012653661156   -0.036455107577   -0.896379613435
 S    1.846533661156   -0.042615107577    1.199200386565
 C    2.951573661156    1.336574892423    1.666410386565
 H    3.975673661156    1.144224892423    1.327090386565
 H    2.923683661156    1.395074892423    2.764730386565
 H    2.573523661156    2.274434892423    1.232700386565
 K    0.070143661156    2.192034892423    0.106230386565
 K   -0.002476338844   -2.193405107577   -0.100929613435
 S   -2.040704446694    0.037021635462    0.894179269209
 S   -1.874584684851    0.043181626631   -1.201397726473
 C   -3.148679504444    1.461509803473    1.185775041125
 H   -4.113681910207    1.309564473567    0.689084290566
 H   -3.291380326517    1.522449618049    2.275048600558
 H   -2.669438803403    2.381877380751    0.819745012219
 C   -2.979622431491   -1.336005360187   -1.668604612121
 H   -4.003727073991   -1.143660829017   -1.329275392278
 H   -2.951741842708   -1.394515234220   -2.766923928308
 H   -2.601568292055   -2.273869345004   -1.234897000890
