22

 H    4.156096350770   -1.310438656686   -0.685750595731
 H    3.333796350770   -1.523318656686   -2.271720595731
 H    2.711846350770   -2.382748656686   -0.816410595731
 C    3.191086350770   -1.462378656686   -1.182440595731
 S    2.083116350770   -0.037898656686   -0.890850595731
 S    1.916996350770   -0.044058656686    1.204729404269
 C    3.022036350770    1.335131343314    1.671939404269
 H    4.046136350770    1.142781343314    1.332619404269
 H    2.994146350770    1.393631343314    2.770259404269
 H    2.643986350770    2.272991343314    1.238229404269
 K    0.140606350770    2.190591343314    0.111759404269
 K    0.067986350770   -2.194848656686   -0.095400595731
 S   -2.169587301073    0.039662021894    0.884066178331
 S   -2.003467539230    0.045822013062   -1.211510817352
 C   -3.277562358823    1.464150189905    1.175661950247
 H   -4.242564764586    1.312204859999    0.678971199688
 H   -3.420263180895    1.525090004480    2.264935509680
 H   -2.798321657782    2.384517767183    0.809631921341
 C   -3.108505285869   -1.333364973755   -1.678717702999
 H   -4.132609928369   -1.141020442585   -1.339388483156
 H   -3.080624697086   -1.391874847789   -2.777037019186
 H   -2.730451146434   -2.271228958572   -1.245010091768
