22

 H    4.191327695577   -1.311160431241   -0.682986086879
 H    3.369027695577   -1.524040431241   -2.268956086879
 H    2.747077695577   -2.383470431241   -0.813646086879
 C    3.226317695577   -1.463100431241   -1.179676086879
 S    2.118347695577   -0.038620431241   -0.888086086879
 S    1.952227695577   -0.044780431241    1.207493913121
 C    3.057267695577    1.334409568759    1.674703913121
 H    4.081367695577    1.142059568759    1.335383913121
 H    3.029377695577    1.392909568759    2.773023913121
 H    2.679217695577    2.272269568759    1.240993913121
 K    0.175837695577    2.189869568759    0.114523913121
 K    0.103217695577   -2.195570431241   -0.092636086879
 S   -2.234028728262    0.040982215109    0.879009632892
 S   -2.067908966419    0.047142206278   -1.216567362791
 C   -3.342003786012    1.465470383121    1.170605404808
 H   -4.307006191775    1.313525053215    0.673914654249
 H   -3.484704608084    1.526410197696    2.259878964241
 H   -2.862763084971    2.385837960399    0.804575375901
 C   -3.172946713058   -1.332044780539   -1.683774248438
 H   -4.197051355558   -1.139700249370   -1.344445028596
 H   -3.145066124275   -1.390554654573   -2.782093564625
 H   -2.794892573623   -2.269908765356   -1.250066637208
