22

 H    4.297021729998   -1.313325754904   -0.674692560323
 H    3.474721729998   -1.526205754904   -2.260662560323
 H    2.852771729998   -2.385635754904   -0.805352560323
 C    3.332011729998   -1.465265754904   -1.171382560323
 S    2.224041729998   -0.040785754904   -0.879792560323
 S    2.057921729998   -0.046945754904    1.215787439677
 C    3.162961729998    1.332244245096    1.682997439677
 H    4.187061729998    1.139894245096    1.343677439677
 H    3.135071729998    1.390744245096    2.781317439677
 H    2.784911729998    2.270104245096    1.249287439677
 K    0.281531729998    2.187704245096    0.122817439677
 K    0.208911729998   -2.197735754904   -0.084342560323
 S   -2.427353009830    0.044942794757    0.863839996574
 S   -2.261233247987    0.051102785925   -1.231736999108
 C   -3.535328067580    1.469430962768    1.155435768490
 H   -4.500330473343    1.317485632862    0.658745017931
 H   -3.678028889652    1.530370777343    2.244709327923
 H   -3.056087366538    2.389798540046    0.789405739584
 C   -3.366270994626   -1.328084200892   -1.698943884756
 H   -4.390375637126   -1.135739669722   -1.359614664913
 H   -3.338390405843   -1.386594074926   -2.797263200943
 H   -2.988216855191   -2.265948185709   -1.265236273525
