22

 H    4.402715764419   -1.315491078567   -0.666399033767
 H    3.580415764419   -1.528371078567   -2.252369033767
 H    2.958465764419   -2.387801078567   -0.797059033767
 C    3.437705764419   -1.467431078567   -1.163089033767
 S    2.329735764419   -0.042951078567   -0.871499033767
 S    2.163615764419   -0.049111078567    1.224080966233
 C    3.268655764419    1.330078921433    1.691290966233
 H    4.292755764419    1.137728921433    1.351970966233
 H    3.240765764419    1.388578921433    2.789610966233
 H    2.890605764419    2.267938921433    1.257580966233
 K    0.387225764419    2.185538921433    0.131110966233
 K    0.314605764419   -2.199901078567   -0.076049033767
 S   -2.620677291397    0.048903374404    0.848670360257
 S   -2.454557529554    0.055063365573   -1.246906635426
 C   -3.728652349147    1.473391542416    1.140266132173
 H   -4.693654754910    1.321446212510    0.643575381614
 H   -3.871353171220    1.534331356991    2.229539691605
 H   -3.249411648106    2.393759119694    0.774236103266
 C   -3.559595276194   -1.324123621244   -1.714113521073
 H   -4.583699918694   -1.131779090075   -1.374784301231
 H   -3.531714687411   -1.382633495278   -2.812432837260
 H   -3.181541136758   -2.261987606061   -1.280405909843
