22

 H    4.437947109226   -1.316212853122   -0.663634524915
 H    3.615647109226   -1.529092853122   -2.249604524915
 H    2.993697109226   -2.388522853122   -0.794294524915
 C    3.472937109226   -1.468152853122   -1.160324524915
 S    2.364967109226   -0.043672853122   -0.868734524915
 S    2.198847109226   -0.049832853122    1.226845475085
 C    3.303887109226    1.329357146878    1.694055475085
 H    4.327987109226    1.137007146878    1.354735475085
 H    3.275997109226    1.387857146878    2.792375475085
 H    2.925837109226    2.267217146878    1.260345475085
 K    0.422457109226    2.184817146878    0.133875475085
 K    0.349837109226   -2.200622853122   -0.073284524915
 S   -2.685118718586    0.050223567620    0.843613814817
 S   -2.518998956744    0.056383558789   -1.251963180865
 C   -3.793093776336    1.474711735631    1.135209586734
 H   -4.758096182100    1.322766405725    0.638518836175
 H   -3.935794598409    1.535651550207    2.224483146166
 H   -3.313853075295    2.395079312909    0.769179557827
 C   -3.624036703383   -1.322803428029   -1.719170066512
 H   -4.648141345883   -1.130458896859   -1.379840846670
 H   -3.596156114600   -1.381313302062   -2.817489382699
 H   -3.245982563948   -2.260667412846   -1.285462455282
