22

 H    4.508409798840   -1.317656402231   -0.658105507211
 H    3.686109798840   -1.530536402231   -2.244075507211
 H    3.064159798840   -2.389966402231   -0.788765507211
 C    3.543399798840   -1.469596402231   -1.154795507211
 S    2.435429798840   -0.045116402231   -0.863205507211
 S    2.269309798840   -0.051276402231    1.232374492789
 C    3.374349798840    1.327913597769    1.699584492789
 H    4.398449798840    1.135563597769    1.360264492789
 H    3.346459798840    1.386413597769    2.797904492789
 H    2.996299798840    2.265773597769    1.265874492789
 K    0.492919798840    2.183373597769    0.139404492789
 K    0.420299798840   -2.202066402231   -0.067755507211
 S   -2.814001572965    0.052863954052    0.833500723939
 S   -2.647881811122    0.059023945220   -1.262076271744
 C   -3.921976630715    1.477352122063    1.125096495855
 H   -4.886979036478    1.325406792157    0.628405745296
 H   -4.064677452787    1.538291936638    2.214370055288
 H   -3.442735929674    2.397719699341    0.759066466949
 C   -3.752919557761   -1.320163041597   -1.729283157391
 H   -4.777024200261   -1.127818510428   -1.389953937548
 H   -3.725038968978   -1.378672915631   -2.827602473578
 H   -3.374865418326   -2.258027026414   -1.295575546160
