22

 H    4.614103833260   -1.319821725894   -0.649811980655
 H    3.791803833260   -1.532701725894   -2.235781980655
 H    3.169853833260   -2.392131725894   -0.780471980655
 C    3.649093833260   -1.471761725894   -1.146501980655
 S    2.541123833260   -0.047281725894   -0.854911980655
 S    2.375003833260   -0.053441725894    1.240668019345
 C    3.480043833260    1.325748274106    1.707878019345
 H    4.504143833260    1.133398274106    1.368558019345
 H    3.452153833260    1.384248274106    2.806198019345
 H    3.101993833260    2.263608274106    1.274168019345
 K    0.598613833260    2.181208274106    0.147698019345
 K    0.525993833260   -2.204231725894   -0.059461980655
 S   -3.007325854533    0.056824533699    0.818331087621
 S   -2.841206092690    0.062984524868   -1.277245908061
 C   -4.115300912283    1.481312701710    1.109926859538
 H   -5.080303318046    1.329367371804    0.613236108979
 H   -4.258001734355    1.542252516286    2.199200418970
 H   -3.636060211242    2.401680278988    0.743896830631
 C   -3.946243839329   -1.316202461950   -1.744452793708
 H   -4.970348481829   -1.123857930780   -1.405123573866
 H   -3.918363250546   -1.374712335983   -2.842772109895
 H   -3.568189699894   -2.254066446767   -1.310745182478
