22

 H    5.142574005365   -1.330648344211   -0.608344347875
 H    4.320274005365   -1.543528344211   -2.194314347875
 H    3.698324005365   -2.402958344211   -0.739004347875
 C    4.177564005365   -1.482588344211   -1.105034347875
 S    3.069594005365   -0.058108344211   -0.813444347875
 S    2.903474005365   -0.064268344211    1.282135652125
 C    4.008514005365    1.314921655789    1.749345652125
 H    5.032614005365    1.122571655789    1.410025652125
 H    3.980624005365    1.373421655789    2.847665652125
 H    3.630464005365    2.252781655789    1.315635652125
 K    1.127084005365    2.170381655789    0.189165652125
 K    1.054464005365   -2.215058344211   -0.017994347875
 S   -3.973947262371    0.076627431936    0.742482906034
 S   -3.807827500528    0.082787423105   -1.353094089649
 C   -5.081922320121    1.501115599947    1.034078677950
 H   -6.046924725884    1.349170270041    0.537387927391
 H   -5.224623142193    1.562055414522    2.123352237383
 H   -4.602681619080    2.421483177225    0.668048649044
 C   -4.912865247167   -1.296399563713   -1.820300975296
 H   -5.936969889667   -1.104055032543   -1.480971755454
 H   -4.884984658384   -1.354909437747   -2.918620291483
 H   -4.534811107732   -2.234263548530   -1.386593364065
