22

 H    5.213036694978   -1.332091893320   -0.602815330171
 H    4.390736694978   -1.544971893320   -2.188785330171
 H    3.768786694978   -2.404401893320   -0.733475330171
 C    4.248026694978   -1.484031893320   -1.099505330171
 S    3.140056694978   -0.059551893320   -0.807915330171
 S    2.973936694978   -0.065711893320    1.287664669829
 C    4.078976694978    1.313478106680    1.754874669829
 H    5.103076694978    1.121128106680    1.415554669829
 H    4.051086694978    1.371978106680    2.853194669829
 H    3.700926694978    2.251338106680    1.321164669829
 K    1.197546694978    2.168938106680    0.194694669829
 K    1.124926694978   -2.216501893320   -0.012465330171
 S   -4.102830116749    0.079267818367    0.732369815155
 S   -3.936710354906    0.085427809536   -1.363207180527
 C   -5.210805174499    1.503755986379    1.023965587072
 H   -6.175807580263    1.351810656473    0.527274836513
 H   -5.353505996572    1.564695800954    2.113239146504
 H   -4.731564473458    2.424123563657    0.657935558165
 C   -5.041748101546   -1.293759177281   -1.830414066174
 H   -6.065852744046   -1.101414646112   -1.491084846332
 H   -5.013867512763   -1.352269051315   -2.928733382361
 H   -4.663693962111   -2.231623162098   -1.396706454944
