22

 H    5.248268039785   -1.332813667874   -0.600050821319
 H    4.425968039785   -1.545693667874   -2.186020821319
 H    3.804018039785   -2.405123667874   -0.730710821319
 C    4.283258039785   -1.484753667874   -1.096740821319
 S    3.175288039785   -0.060273667874   -0.805150821319
 S    3.009168039785   -0.066433667874    1.290429178681
 C    4.114208039785    1.312756332126    1.757639178681
 H    5.138308039785    1.120406332126    1.418319178681
 H    4.086318039785    1.371256332126    2.855959178681
 H    3.736158039785    2.250616332126    1.323929178681
 K    1.232778039785    2.168216332126    0.197459178681
 K    1.160158039785   -2.217223667874   -0.009700821319
 S   -4.167271543939    0.080588011583    0.727313269716
 S   -4.001151782096    0.086748002752   -1.368263725966
 C   -5.275246601689    1.505076179595    1.018909041632
 H   -6.240249007452    1.353130849689    0.522218291073
 H   -5.417947423761    1.566015994170    2.108182601065
 H   -4.796005900648    2.425443756873    0.652879012726
 C   -5.106189528735   -1.292438984065   -1.835470611614
 H   -6.130294171235   -1.100094452896   -1.496141391771
 H   -5.078308939952   -1.350948858099   -2.933789927801
 H   -4.728135389300   -2.230302968882   -1.401763000383
