22

 H    5.318730729399   -1.334257216983   -0.594521803615
 H    4.496430729399   -1.547137216983   -2.180491803615
 H    3.874480729399   -2.406567216983   -0.725181803615
 C    4.353720729399   -1.486197216983   -1.091211803615
 S    3.245750729399   -0.061717216983   -0.799621803615
 S    3.079630729399   -0.067877216983    1.295958196385
 C    4.184670729399    1.311312783017    1.763168196385
 H    5.208770729399    1.118962783017    1.423848196385
 H    4.156780729399    1.369812783017    2.861488196385
 H    3.806620729399    2.249172783017    1.329458196385
 K    1.303240729399    2.166772783017    0.202988196385
 K    1.230620729399   -2.218667216983   -0.004171803615
 S   -4.296154398317    0.083228398015    0.717200178838
 S   -4.130034636474    0.089388389183   -1.378376816845
 C   -5.404129456067    1.507716566026    1.008795950754
 H   -6.369131861830    1.355771236120    0.512105200195
 H   -5.546830278140    1.568656380601    2.098069510187
 H   -4.924888755026    2.428084143304    0.642765921848
 C   -5.235072383113   -1.289798597634   -1.845583702492
 H   -6.259177025614   -1.097454066464   -1.506254482649
 H   -5.207191794331   -1.348308471668   -2.943903018679
 H   -4.857018243678   -2.227662582451   -1.411876091261
