22

 H    5.353962074206   -1.334978991537   -0.591757294763
 H    4.531662074206   -1.547858991537   -2.177727294763
 H    3.909712074206   -2.407288991537   -0.722417294763
 C    4.388952074206   -1.486918991537   -1.088447294763
 S    3.280982074206   -0.062438991537   -0.796857294763
 S    3.114862074206   -0.068598991537    1.298722705237
 C    4.219902074206    1.310591008463    1.765932705237
 H    5.244002074206    1.118241008463    1.426612705237
 H    4.192012074206    1.369091008463    2.864252705237
 H    3.841852074206    2.248451008463    1.332222705237
 K    1.338472074206    2.166051008463    0.205752705237
 K    1.265852074206   -2.219388991537   -0.001407294763
 S   -4.360595825506    0.084548591231    0.712143633399
 S   -4.194476063663    0.090708582399   -1.383433362284
 C   -5.468570883256    1.509036759242    1.003739405315
 H   -6.433573289019    1.357091429336    0.507048654756
 H   -5.611271705329    1.569976573817    2.093012964748
 H   -4.989330182215    2.429404336520    0.637709376408
 C   -5.299513810303   -1.288478404418   -1.850640247931
 H   -6.323618452803   -1.096133873249   -1.511311028089
 H   -5.271633221520   -1.346988278452   -2.948959564118
 H   -4.921459670867   -2.226342389235   -1.416932636701
