22

 H    5.424424763820   -1.336422540646   -0.586228277059
 H    4.602124763820   -1.549302540646   -2.172198277059
 H    3.980174763820   -2.408732540646   -0.716888277059
 C    4.459414763820   -1.488362540646   -1.082918277059
 S    3.351444763820   -0.063882540646   -0.791328277059
 S    3.185324763820   -0.070042540646    1.304251722941
 C    4.290364763820    1.309147459354    1.771461722941
 H    5.314464763820    1.116797459354    1.432141722941
 H    4.262474763820    1.367647459354    2.869781722941
 H    3.912314763820    2.247007459354    1.337751722941
 K    1.408934763820    2.164607459354    0.211281722941
 K    1.336314763820   -2.220832540646    0.004121722941
 S   -4.489478679885    0.087188977662    0.702030542520
 S   -4.323358918042    0.093348968831   -1.393546453162
 C   -5.597453737635    1.511677145674    0.993626314436
 H   -6.562456143398    1.359731815768    0.496935563877
 H   -5.740154559707    1.572616960249    2.082899873869
 H   -5.118213036594    2.432044722952    0.627596285530
 C   -5.428396664681   -1.285838017986   -1.860753338809
 H   -6.452501307181   -1.093493486817   -1.521424118967
 H   -5.400516075898   -1.344347892020   -2.959072654997
 H   -5.050342525246   -2.223702002803   -1.427045727579
