22

 H    5.530118798241   -1.338587864310   -0.577934750503
 H    4.707818798241   -1.551467864310   -2.163904750503
 H    4.085868798241   -2.410897864310   -0.708594750503
 C    4.565108798241   -1.490527864310   -1.074624750503
 S    3.457138798241   -0.066047864310   -0.783034750503
 S    3.291018798241   -0.072207864310    1.312545249497
 C    4.396058798241    1.306982135690    1.779755249497
 H    5.420158798241    1.114632135690    1.440435249497
 H    4.368168798241    1.365482135690    2.878075249497
 H    4.018008798241    2.244842135690    1.346045249497
 K    1.514628798241    2.162442135690    0.219575249497
 K    1.442008798241   -2.222997864310    0.012415249497
 S   -4.682802961452    0.091149557309    0.686860906203
 S   -4.516683199610    0.097309548478   -1.408716089480
 C   -5.790778019202    1.515637725321    0.978456678119
 H   -6.755780424966    1.363692395415    0.481765927560
 H   -5.933478841275    1.576577539896    2.067730237552
 H   -5.311537318161    2.436005302599    0.612426649213
 C   -5.621720946249   -1.281877438339   -1.875922975127
 H   -6.645825588749   -1.089532907170   -1.536593755285
 H   -5.593840357466   -1.340387312373   -2.974242291314
 H   -5.243666806814   -2.219741423156   -1.442215363896
