22

 H    5.600581487855   -1.340031413419   -0.572405732799
 H    4.778281487855   -1.552911413419   -2.158375732799
 H    4.156331487855   -2.412341413419   -0.703065732799
 C    4.635571487855   -1.491971413419   -1.069095732799
 S    3.527601487855   -0.067491413419   -0.777505732799
 S    3.361481487855   -0.073651413419    1.318074267201
 C    4.466521487855    1.305538586581    1.785284267201
 H    5.490621487855    1.113188586581    1.445964267201
 H    4.438631487855    1.364038586581    2.883604267201
 H    4.088471487855    2.243398586581    1.351574267201
 K    1.585091487855    2.160998586581    0.225104267201
 K    1.512471487855   -2.224441413419    0.017944267201
 S   -4.811685815831    0.093789943741    0.676747815324
 S   -4.645566053988    0.099949934910   -1.418829180358
 C   -5.919660873581    1.518278111753    0.968343587241
 H   -6.884663279344    1.366332781847    0.471652836682
 H   -6.062361695653    1.579217926328    2.057617146673
 H   -5.440420172540    2.438645689031    0.602313558334
 C   -5.750603800627   -1.279237051908   -1.886036066005
 H   -6.774708443127   -1.086892520738   -1.546706846163
 H   -5.722723211844   -1.337746925941   -2.984355382192
 H   -5.372549661192   -2.217101036724   -1.452328454775
