22

 H    5.635812832662   -1.340753187973   -0.569641223947
 H    4.813512832662   -1.553633187973   -2.155611223947
 H    4.191562832662   -2.413063187973   -0.700301223947
 C    4.670802832662   -1.492693187973   -1.066331223947
 S    3.562832832662   -0.068213187973   -0.774741223947
 S    3.396712832662   -0.074373187973    1.320838776053
 C    4.501752832662    1.304816812027    1.788048776053
 H    5.525852832662    1.112466812027    1.448728776053
 H    4.473862832662    1.363316812027    2.886368776053
 H    4.123702832662    2.242676812027    1.354338776053
 K    1.620322832662    2.160276812027    0.227868776053
 K    1.547702832662   -2.225163187973    0.020708776053
 S   -4.876127243020    0.095110136957    0.671691269885
 S   -4.710007481177    0.101270128126   -1.423885725797
 C   -5.984102300770    1.519598304968    0.963287041801
 H   -6.949104706533    1.367652975062    0.466596291242
 H   -6.126803122843    1.580538119544    2.052560601234
 H   -5.504861599729    2.439965882246    0.597257012895
 C   -5.815045227816   -1.277916858692   -1.891092611445
 H   -6.839149870317   -1.085572327522   -1.551763391602
 H   -5.787164639034   -1.336426732725   -2.989411927632
 H   -5.436991088381   -2.215780843509   -1.457385000214
