22

 H    5.706275522276   -1.342196737082   -0.564112206243
 H    4.883975522276   -1.555076737082   -2.150082206243
 H    4.262025522276   -2.414506737082   -0.694772206243
 C    4.741265522276   -1.494136737082   -1.060802206243
 S    3.633295522276   -0.069656737082   -0.769212206243
 S    3.467175522276   -0.075816737082    1.326367793757
 C    4.572215522276    1.303373262918    1.793577793757
 H    5.596315522276    1.111023262918    1.454257793757
 H    4.544325522276    1.361873262918    2.891897793757
 H    4.194165522276    2.241233262918    1.359867793757
 K    1.690785522276    2.158833262918    0.233397793757
 K    1.618165522276   -2.226606737082    0.026237793757
 S   -5.005010097399    0.097750523388    0.661578179007
 S   -4.838890335556    0.103910514557   -1.433998816676
 C   -6.112985155148    1.522238691400    0.953173950923
 H   -7.077987560912    1.370293361494    0.456483200364
 H   -6.255685977221    1.583178505975    2.042447510356
 H   -5.633744454107    2.442606268678    0.587143922017
 C   -5.943928082195   -1.275276472260   -1.901205702323
 H   -6.968032724695   -1.082931941091   -1.561876482480
 H   -5.916047493412   -1.333786346294   -2.999525018510
 H   -5.565873942760   -2.213140457077   -1.467498091092
