22

 H    5.847200901503   -1.345083835300   -0.553054170835
 H    5.024900901503   -1.557963835300   -2.139024170835
 H    4.402950901503   -2.417393835300   -0.683714170835
 C    4.882190901503   -1.497023835300   -1.049744170835
 S    3.774220901503   -0.072543835300   -0.758154170835
 S    3.608100901503   -0.078703835300    1.337425829165
 C    4.713140901503    1.300486164700    1.804635829165
 H    5.737240901503    1.108136164700    1.465315829165
 H    4.685250901503    1.358986164700    2.902955829165
 H    4.335090901503    2.238346164700    1.370925829165
 K    1.831710901503    2.155946164700    0.244455829165
 K    1.759090901503   -2.229493835300    0.037295829165
 S   -5.262775806155    0.103031296252    0.641351997250
 S   -5.096656044313    0.109191287420   -1.454224998432
 C   -6.370750863905    1.527519464263    0.932947769166
 H   -7.335753269669    1.375574134357    0.436257018607
 H   -6.513451685978    1.588459278838    2.022221328599
 H   -5.891510162864    2.447887041541    0.566917740260
 C   -6.201693790952   -1.269995699397   -1.921431884080
 H   -7.225798433452   -1.077651168227   -1.582102664237
 H   -6.173813202169   -1.328505573431   -3.019751200267
 H   -5.823639651517   -2.207859684214   -1.487724272849
