22

 H    5.917663591117   -1.346527384409   -0.547525153131
 H    5.095363591117   -1.559407384409   -2.133495153131
 H    4.473413591117   -2.418837384409   -0.678185153131
 C    4.952653591117   -1.498467384409   -1.044215153131
 S    3.844683591117   -0.073987384409   -0.752625153131
 S    3.678563591117   -0.080147384409    1.342954846869
 C    4.783603591117    1.299042615591    1.810164846869
 H    5.807703591117    1.106692615591    1.470844846869
 H    4.755713591117    1.357542615591    2.908484846869
 H    4.405553591117    2.236902615591    1.376454846869
 K    1.902173591117    2.154502615591    0.249984846869
 K    1.829553591117   -2.230937384409    0.042824846869
 S   -5.391658660534    0.105671682683    0.631238906372
 S   -5.225538898691    0.111831673852   -1.464338089311
 C   -6.499633718284    1.530159850695    0.922834678288
 H   -7.464636124047    1.378214520789    0.426143927729
 H   -6.642334540356    1.591099665270    2.012108237721
 H   -6.020393017243    2.450527427973    0.556804649382
 C   -6.330576645330   -1.267355312965   -1.931544974958
 H   -7.354681287830   -1.075010781796   -1.592215755116
 H   -6.302696056547   -1.325865186999   -3.029864291145
 H   -5.952522505895   -2.205219297782   -1.497837363727
