22

 H    5.988126280731   -1.347970933517   -0.541996135427
 H    5.165826280731   -1.560850933517   -2.127966135427
 H    4.543876280731   -2.420280933517   -0.672656135427
 C    5.023116280731   -1.499910933517   -1.038686135427
 S    3.915146280731   -0.075430933517   -0.747096135427
 S    3.749026280731   -0.081590933517    1.348483864573
 C    4.854066280731    1.297599066483    1.815693864573
 H    5.878166280731    1.105249066483    1.476373864573
 H    4.826176280731    1.356099066483    2.914013864573
 H    4.476016280731    2.235459066483    1.381983864573
 K    1.972636280731    2.153059066483    0.255513864573
 K    1.900016280731   -2.232380933517    0.048353864573
 S   -5.520541514912    0.108312069115    0.621125815493
 S   -5.354421753069    0.114472060284   -1.474451180189
 C   -6.628516572662    1.532800237126    0.912721587410
 H   -7.593518978426    1.380854907220    0.416030836851
 H   -6.771217394735    1.593740051701    2.001995146842
 H   -6.149275871621    2.453167814404    0.546691558503
 C   -6.459459499709   -1.264714926534   -1.941658065836
 H   -7.483564142209   -1.072370395364   -1.602328845994
 H   -6.431578910926   -1.323224800568   -3.039977382023
 H   -6.081405360273   -2.202578911351   -1.507950454606
