22

 H    6.058588970345   -1.349414482626   -0.536467117723
 H    5.236288970345   -1.562294482626   -2.122437117723
 H    4.614338970345   -2.421724482626   -0.667127117723
 C    5.093578970345   -1.501354482626   -1.033157117723
 S    3.985608970345   -0.076874482626   -0.741567117723
 S    3.819488970345   -0.083034482626    1.354012882277
 C    4.924528970345    1.296155517374    1.821222882277
 H    5.948628970345    1.103805517374    1.481902882277
 H    4.896638970345    1.354655517374    2.919542882277
 H    4.546478970345    2.234015517374    1.387512882277
 K    2.043098970345    2.151615517374    0.261042882277
 K    1.970478970345   -2.233824482626    0.053882882277
 S   -5.649424369291    0.110952455546    0.611012724615
 S   -5.483304607448    0.117112446715   -1.484564271068
 C   -6.757399427041    1.535440623558    0.902608496531
 H   -7.722401832804    1.383495293652    0.405917745972
 H   -6.900100249113    1.596380438133    1.991882055964
 H   -6.278158726000    2.455808200836    0.536578467625
 C   -6.588342354087   -1.262074540102   -1.951771156715
 H   -7.612446996587   -1.069730008933   -1.612441936872
 H   -6.560461765304   -1.320584414136   -3.050090472902
 H   -6.210288214652   -2.199938524919   -1.518063545484
