22

 H    6.129051659959   -1.350858031735   -0.530938100019
 H    5.306751659959   -1.563738031735   -2.116908100019
 H    4.684801659959   -2.423168031735   -0.661598100019
 C    5.164041659959   -1.502798031735   -1.027628100019
 S    4.056071659959   -0.078318031735   -0.736038100019
 S    3.889951659959   -0.084478031735    1.359541899981
 C    4.994991659959    1.294711968265    1.826751899981
 H    6.019091659959    1.102361968265    1.487431899981
 H    4.967101659959    1.353211968265    2.925071899981
 H    4.616941659959    2.232571968265    1.393041899981
 K    2.113561659959    2.150171968265    0.266571899981
 K    2.040941659959   -2.235268031735    0.059411899981
 S   -5.778307223669    0.113592841978    0.600899633737
 S   -5.612187461826    0.119752833147   -1.494677361946
 C   -6.886282281419    1.538081009989    0.892495405653
 H   -7.851284687182    1.386135680083    0.395804655094
 H   -7.028983103492    1.599020824565    1.981768965086
 H   -6.407041580378    2.458448587267    0.526465376746
 C   -6.717225208466   -1.259434153671   -1.961884247593
 H   -7.741329850966   -1.067089622501   -1.622555027751
 H   -6.689344619683   -1.317944027704   -3.060203563780
 H   -6.339171069030   -2.197298138488   -1.528176636363
