22

 H    6.199514349573   -1.352301580844   -0.525409082315
 H    5.377214349573   -1.565181580844   -2.111379082315
 H    4.755264349573   -2.424611580844   -0.656069082315
 C    5.234504349573   -1.504241580844   -1.022099082315
 S    4.126534349573   -0.079761580844   -0.730509082315
 S    3.960414349573   -0.085921580844    1.365070917685
 C    5.065454349573    1.293268419156    1.832280917685
 H    6.089554349573    1.100918419156    1.492960917685
 H    5.037564349573    1.351768419156    2.930600917685
 H    4.687404349573    2.231128419156    1.398570917685
 K    2.184024349573    2.148728419156    0.272100917685
 K    2.111404349573   -2.236711580844    0.064940917685
 S   -5.907190078048    0.116233228410    0.590786542858
 S   -5.741070316205    0.122393219578   -1.504790452824
 C   -7.015165135798    1.540721396421    0.882382314774
 H   -7.980167541561    1.388776066515    0.385691564215
 H   -7.157865957870    1.601661210996    1.971655874207
 H   -6.535924434757    2.461088973699    0.516352285868
 C   -6.846108062844   -1.256793767239   -1.971997338471
 H   -7.870212705344   -1.064449236070   -1.632668118629
 H   -6.818227474061   -1.315303641273   -3.070316654659
 H   -6.468053923409   -2.194657752056   -1.538289727241
