17

 N   -1.639829206455   -1.476014712349    0.054797601870
 C   -0.429641139611   -0.820808508673    0.058759225838
 N    0.803771274692   -1.419486203135    0.070797510743
 C    1.774194474748   -0.529310061524    0.058925053770
 N    1.571117637335    0.832328071990    0.052089893428
 H    2.374944762586    1.452288611745   -0.029898128994
 N    3.099649228985   -0.947984783204   -0.019422249465
 H    3.754185434317   -0.416181558804    0.548218527265
 H    3.178454316376   -1.948684927139    0.142161088524
 C    0.311843895018    1.518361775521    0.065043680105
 O    0.284263525913    2.746534860298    0.060955551677
 C   -0.760941230958    0.544668386247    0.071244878045
 N   -2.132014532727    0.730999431560    0.071169693329
 C   -2.625538027238   -0.507603582485    0.060839593664
 H   -3.683035940506   -0.761750204317    0.057892949238
 H   -1.764926202986   -2.482597797581    0.046138050839
LI   -1.641756072237   -1.464595747220   -1.245150818039
