17

 N   -1.639816048420   -1.476092689315    0.063674591363
 C   -0.429627981576   -0.820886485639    0.067636215331
 N    0.803784432727   -1.419564180101    0.079674500236
 C    1.774207632783   -0.529388038490    0.067802043263
 N    1.571130795370    0.832250095024    0.060966882921
 H    2.374957920621    1.452210634779   -0.021021139501
 N    3.099662387020   -0.948062760170   -0.010545259972
 H    3.754198592352   -0.416259535770    0.557095516758
 H    3.178467474411   -1.948762904105    0.151038078017
 C    0.311857053053    1.518283798555    0.073920669598
 O    0.284276683948    2.746456883332    0.069832541170
 C   -0.760928072923    0.544590409281    0.080121867538
 N   -2.132001374692    0.730921454594    0.080046682822
 C   -2.625524869203   -0.507681559451    0.069716583157
 H   -3.683022782471   -0.761828181283    0.066769938731
 H   -1.764913044951   -2.482675774547    0.055015040332
LI   -1.642039355091   -1.462916960319   -1.436265893147
