17

 N   -1.639809469402   -1.476131677798    0.068113086109
 C   -0.429621402558   -0.820925474122    0.072074710077
 N    0.803791011745   -1.419603168584    0.084112994982
 C    1.774214211801   -0.529427026973    0.072240538009
 N    1.571137374388    0.832211106541    0.065405377667
 H    2.374964499639    1.452171646296   -0.016582644755
 N    3.099668966038   -0.948101748653   -0.006106765226
 H    3.754205171370   -0.416298524253    0.561534011504
 H    3.178474053429   -1.948801892588    0.155476572763
 C    0.311863632071    1.518244810072    0.078359164344
 O    0.284283262966    2.746417894849    0.074271035916
 C   -0.760921493905    0.544551420798    0.084560362284
 N   -2.131994795674    0.730882466111    0.084485177568
 C   -2.625518290185   -0.507720547934    0.074155077903
 H   -3.683016203453   -0.761867169766    0.071208433477
 H   -1.764906465933   -2.482714763030    0.059453535078
LI   -1.642180996518   -1.462077566869   -1.531823430702
