17

 N   -1.639802890385   -1.476170666281    0.072551580856
 C   -0.429614823541   -0.820964462605    0.076513204824
 N    0.803797590762   -1.419642157067    0.088551489729
 C    1.774220790818   -0.529466015456    0.076679032756
 N    1.571143953405    0.832172118058    0.069843872414
 H    2.374971078656    1.452132657813   -0.012144150008
 N    3.099675545055   -0.948140737136   -0.001668270479
 H    3.754211750387   -0.416337512736    0.565972506251
 H    3.178480632446   -1.948840881071    0.159915067510
 C    0.311870211088    1.518205821589    0.082797659091
 O    0.284289841983    2.746378906366    0.078709530663
 C   -0.760914914888    0.544512432315    0.088998857031
 N   -2.131988216657    0.730843477628    0.088923672315
 C   -2.625511711168   -0.507759536417    0.078593572650
 H   -3.683009624436   -0.761906158249    0.075646928224
 H   -1.764899886916   -2.482753751513    0.063892029825
LI   -1.642322637945   -1.461238173419   -1.627380968256
