17

 N   -1.639796311367   -1.476209654764    0.076990075602
 C   -0.429608244523   -0.821003451088    0.080951699570
 N    0.803804169780   -1.419681145550    0.092989984475
 C    1.774227369836   -0.529505003939    0.081117527502
 N    1.571150532423    0.832133129575    0.074282367160
 H    2.374977657674    1.452093669330   -0.007705655262
 N    3.099682124073   -0.948179725619    0.002770224267
 H    3.754218329405   -0.416376501219    0.570411000997
 H    3.178487211464   -1.948879869554    0.164353562256
 C    0.311876790106    1.518166833106    0.087236153837
 O    0.284296421001    2.746339917883    0.083148025409
 C   -0.760908335870    0.544473443832    0.093437351777
 N   -2.131981637639    0.730804489145    0.093362167061
 C   -2.625505132150   -0.507798524900    0.083032067396
 H   -3.683003045418   -0.761945146732    0.080085422970
 H   -1.764893307898   -2.482792739996    0.068330524571
LI   -1.642464279372   -1.460398779969   -1.722938505810
