17

 N   -1.639769995296   -1.476365608696    0.094744054588
 C   -0.429581928452   -0.821159405020    0.098705678556
 N    0.803830485851   -1.419837099482    0.110743963461
 C    1.774253685907   -0.529660957871    0.098871506488
 N    1.571176848494    0.831977175643    0.092036346146
 H    2.375003973745    1.451937715398    0.010048323724
 N    3.099708440144   -0.948335679551    0.020524203253
 H    3.754244645476   -0.416532455151    0.588164979983
 H    3.178513527535   -1.949035823486    0.182107541242
 C    0.311903106177    1.518010879174    0.104990132823
 O    0.284322737072    2.746183963951    0.100902004395
 C   -0.760882019799    0.544317489900    0.111191330763
 N   -2.131955321568    0.730648535213    0.111116146047
 C   -2.625478816079   -0.507954478832    0.100786046382
 H   -3.682976729347   -0.762101100664    0.097839401956
 H   -1.764866991827   -2.482948693928    0.086084503557
LI   -1.643030845080   -1.457041206168   -2.105168656027
