17

 N   -1.639763416278   -1.476404597178    0.099182549335
 C   -0.429575349434   -0.821198393502    0.103144173303
 N    0.803837064869   -1.419876087964    0.115182458208
 C    1.774260264925   -0.529699946353    0.103310001235
 N    1.571183427512    0.831938187161    0.096474840893
 H    2.375010552763    1.451898726916    0.014486818471
 N    3.099715019162   -0.948374668033    0.024962698000
 H    3.754251224494   -0.416571443633    0.592603474730
 H    3.178520106553   -1.949074811968    0.186546035989
 C    0.311909685195    1.517971890692    0.109428627570
 O    0.284329316090    2.746144975469    0.105340499142
 C   -0.760875440781    0.544278501418    0.115629825510
 N   -2.131948742550    0.730609546731    0.115554640794
 C   -2.625472237061   -0.507993467314    0.105224541129
 H   -3.682970150329   -0.762140089146    0.102277896703
 H   -1.764860412809   -2.482987682410    0.090522998304
LI   -1.643172486507   -1.456201812718   -2.200726193581
