17

 N   -1.639756837261   -1.476443585661    0.103621044081
 C   -0.429568770417   -0.821237381985    0.107582668049
 N    0.803843643886   -1.419915076447    0.119620952954
 C    1.774266843942   -0.529738934836    0.107748495981
 N    1.571190006529    0.831899198678    0.100913335639
 H    2.375017131780    1.451859738433    0.018925313217
 N    3.099721598179   -0.948413656516    0.029401192746
 H    3.754257803511   -0.416610432116    0.597041969476
 H    3.178526685570   -1.949113800451    0.190984530735
 C    0.311916264212    1.517932902209    0.113867122316
 O    0.284335895107    2.746105986986    0.109778993888
 C   -0.760868861764    0.544239512935    0.120068320256
 N   -2.131942163533    0.730570558248    0.119993135540
 C   -2.625465658044   -0.508032455797    0.109663035875
 H   -3.682963571312   -0.762179077629    0.106716391449
 H   -1.764853833792   -2.483026670893    0.094961493050
LI   -1.643314127934   -1.455362419268   -2.296283731135
