17

 N   -1.639750258243   -1.476482574144    0.108059538828
 C   -0.429562191399   -0.821276370468    0.112021162796
 N    0.803850222904   -1.419954064930    0.124059447701
 C    1.774273422960   -0.529777923319    0.112186990728
 N    1.571196585547    0.831860210195    0.105351830386
 H    2.375023710798    1.451820749950    0.023363807964
 N    3.099728177197   -0.948452644999    0.033839687493
 H    3.754264382529   -0.416649420599    0.601480464223
 H    3.178533264588   -1.949152788934    0.195423025482
 C    0.311922843230    1.517893913726    0.118305617063
 O    0.284342474125    2.746066998503    0.114217488635
 C   -0.760862282746    0.544200524452    0.124506815003
 N   -2.131935584515    0.730531569765    0.124431630287
 C   -2.625459079026   -0.508071444280    0.114101530622
 H   -3.682956992294   -0.762218066112    0.111154886196
 H   -1.764847254774   -2.483065659376    0.099399987797
LI   -1.643455769361   -1.454523025818   -2.391841268689
