17

 N   -1.639737100208   -1.476560551110    0.116936528321
 C   -0.429549033364   -0.821354347434    0.120898152289
 N    0.803863380939   -1.420032041896    0.132936437194
 C    1.774286580995   -0.529855900285    0.121063980221
 N    1.571209743582    0.831782233229    0.114228819879
 H    2.375036868833    1.451742772984    0.032240797457
 N    3.099741335232   -0.948530621965    0.042716676986
 H    3.754277540564   -0.416727397565    0.610357453716
 H    3.178546422623   -1.949230765900    0.204300014975
 C    0.311936001265    1.517815936760    0.127182606556
 O    0.284355632160    2.745989021537    0.123094478128
 C   -0.760849124711    0.544122547486    0.133383804496
 N   -2.131922426480    0.730453592799    0.133308619780
 C   -2.625445920991   -0.508149421246    0.122978520115
 H   -3.682943834259   -0.762296043078    0.120031875689
 H   -1.764834096739   -2.483143636342    0.108276977290
LI   -1.643739052215   -1.452844238917   -2.582956343798
