17

 N   -1.639730521190   -1.476599539593    0.121375023067
 C   -0.429542454346   -0.821393335917    0.125336647035
 N    0.803869959957   -1.420071030379    0.137374931940
 C    1.774293160013   -0.529894888768    0.125502474967
 N    1.571216322600    0.831743244746    0.118667314625
 H    2.375043447851    1.451703784501    0.036679292203
 N    3.099747914250   -0.948569610448    0.047155171732
 H    3.754284119582   -0.416766386048    0.614795948462
 H    3.178553001641   -1.949269754383    0.208738509721
 C    0.311942580283    1.517776948277    0.131621101302
 O    0.284362211178    2.745950033054    0.127532972874
 C   -0.760842545693    0.544083559003    0.137822299242
 N   -2.131915847462    0.730414604316    0.137747114526
 C   -2.625439341973   -0.508188409729    0.127417014861
 H   -3.682937255241   -0.762335031561    0.124470370435
 H   -1.764827517721   -2.483182624825    0.112715472036
LI   -1.643880693642   -1.452004845467   -2.678513881352
