17

 N   -1.639723942172   -1.476638528076    0.125813517814
 C   -0.429535875328   -0.821432324400    0.129775141782
 N    0.803876538975   -1.420110018862    0.141813426687
 C    1.774299739031   -0.529933877251    0.129940969714
 N    1.571222901618    0.831704256263    0.123105809372
 H    2.375050026869    1.451664796018    0.041117786950
 N    3.099754493268   -0.948608598931    0.051593666479
 H    3.754290698600   -0.416805374531    0.619234443209
 H    3.178559580659   -1.949308742866    0.213177004468
 C    0.311949159301    1.517737959794    0.136059596049
 O    0.284368790196    2.745911044571    0.131971467621
 C   -0.760835966675    0.544044570520    0.142260793989
 N   -2.131909268444    0.730375615833    0.142185609273
 C   -2.625432762955   -0.508227398212    0.131855509608
 H   -3.682930676223   -0.762374020044    0.128908865182
 H   -1.764820938703   -2.483221613308    0.117153966783
LI   -1.644022335069   -1.451165452017   -2.774071418906
