17

 N   -1.639717363155   -1.476677516559    0.130252012560
 C   -0.429529296311   -0.821471312883    0.134213636528
 N    0.803883117992   -1.420149007345    0.146251921433
 C    1.774306318048   -0.529972865734    0.134379464460
 N    1.571229480635    0.831665267780    0.127544304118
 H    2.375056605886    1.451625807535    0.045556281696
 N    3.099761072285   -0.948647587414    0.056032161225
 H    3.754297277617   -0.416844363014    0.623672937955
 H    3.178566159676   -1.949347731349    0.217615499214
 C    0.311955738318    1.517698971311    0.140498090795
 O    0.284375369213    2.745872056088    0.136409962367
 C   -0.760829387658    0.544005582037    0.146699288735
 N   -2.131902689427    0.730336627350    0.146624104019
 C   -2.625426183938   -0.508266386695    0.136294004354
 H   -3.682924097206   -0.762413008527    0.133347359928
 H   -1.764814359686   -2.483260601791    0.121592461529
LI   -1.644163976496   -1.450326058567   -2.869628956460
