17

 N   -1.639697626102   -1.476794482007    0.143567496800
 C   -0.429509559258   -0.821588278331    0.147529120768
 N    0.803902855045   -1.420265972793    0.159567405673
 C    1.774326055101   -0.530089831182    0.147694948700
 N    1.571249217688    0.831548302332    0.140859788358
 H    2.375076342939    1.451508842087    0.058871765936
 N    3.099780809338   -0.948764552862    0.069347645465
 H    3.754317014670   -0.416961328462    0.636988422195
 H    3.178585896729   -1.949464696797    0.230930983454
 C    0.311975475371    1.517582005863    0.153813575035
 O    0.284395106266    2.745755090640    0.149725446607
 C   -0.760809650605    0.543888616589    0.160014772975
 N   -2.131882952374    0.730219661902    0.159939588259
 C   -2.625406446885   -0.508383352143    0.149609488594
 H   -3.682904360153   -0.762529973975    0.146662844168
 H   -1.764794622633   -2.483377567239    0.134907945769
LI   -1.644588900778   -1.447807878216   -3.156301569123
