17

 N   -1.639684468066   -1.476872458973    0.152444486293
 C   -0.429496401222   -0.821666255297    0.156406110261
 N    0.803916013081   -1.420343949759    0.168444395166
 C    1.774339213137   -0.530167808148    0.156571938193
 N    1.571262375724    0.831470325366    0.149736777851
 H    2.375089500975    1.451430865121    0.067748755429
 N    3.099793967374   -0.948842529828    0.078224634958
 H    3.754330172706   -0.417039305428    0.645865411688
 H    3.178599054765   -1.949542673763    0.239807972947
 C    0.311988633407    1.517504028897    0.162690564528
 O    0.284408264302    2.745677113674    0.158602436100
 C   -0.760796492569    0.543810639623    0.168891762468
 N   -2.131869794338    0.730141684936    0.168816577752
 C   -2.625393288849   -0.508461329109    0.158486478087
 H   -3.682891202117   -0.762607950941    0.155539833661
 H   -1.764781464597   -2.483455544205    0.143784935262
LI   -1.644872183632   -1.446129091316   -3.347416644231
