17

 N   -1.639664731013   -1.476989424422    0.165759970532
 C   -0.429476664169   -0.821783220746    0.169721594500
 N    0.803935750134   -1.420460915208    0.181759879405
 C    1.774358950190   -0.530284773597    0.169887422432
 N    1.571282112777    0.831353359917    0.163052262090
 H    2.375109238028    1.451313899672    0.081064239668
 N    3.099813704427   -0.948959495277    0.091540119197
 H    3.754349909759   -0.417156270877    0.659180895927
 H    3.178618791818   -1.949659639212    0.253123457186
 C    0.312008370460    1.517387063448    0.176006048767
 O    0.284428001355    2.745560148225    0.171917920339
 C   -0.760776755516    0.543693674174    0.182207246707
 N   -2.131850057285    0.730024719487    0.182132061991
 C   -2.625373551796   -0.508578294558    0.171801962326
 H   -3.682871465064   -0.762724916390    0.168855317900
 H   -1.764761727544   -2.483572509654    0.157100419501
LI   -1.645297107913   -1.443610910966   -3.634089256894
