17

 N   -1.639651572978   -1.477067401388    0.174636960025
 C   -0.429463506134   -0.821861197712    0.178598583993
 N    0.803948908169   -1.420538892174    0.190636868898
 C    1.774372108225   -0.530362750563    0.178764411925
 N    1.571295270812    0.831275382951    0.171929251583
 H    2.375122396063    1.451235922706    0.089941229161
 N    3.099826862462   -0.949037472243    0.100417108690
 H    3.754363067794   -0.417234247843    0.668057885420
 H    3.178631949853   -1.949737616178    0.262000446679
 C    0.312021528495    1.517309086482    0.184883038260
 O    0.284441159390    2.745482171259    0.180794909832
 C   -0.760763597481    0.543615697208    0.191084236200
 N   -2.131836899250    0.729946742521    0.191009051484
 C   -2.625360393761   -0.508656271524    0.180678951819
 H   -3.682858307029   -0.762802893356    0.177732307393
 H   -1.764748569509   -2.483650486620    0.165977408994
LI   -1.645580390767   -1.441932124065   -3.825204332002
