17

 N   -1.639618677889   -1.477262343802    0.196829433758
 C   -0.429430611045   -0.822056140126    0.200791057726
 N    0.803981803258   -1.420733834588    0.212829342631
 C    1.774405003314   -0.530557692977    0.200956885658
 N    1.571328165901    0.831080440537    0.194121725316
 H    2.375155291152    1.451040980292    0.112133702894
 N    3.099859757551   -0.949232414657    0.122609582423
 H    3.754395962883   -0.417429190257    0.690250359153
 H    3.178664844942   -1.949932558592    0.284192920412
 C    0.312054423584    1.517114144068    0.207075511993
 O    0.284474054479    2.745287228845    0.202987383565
 C   -0.760730702392    0.543420754794    0.213276709933
 N   -2.131804004161    0.729751800107    0.213201525217
 C   -2.625327498672   -0.508851213938    0.202871425552
 H   -3.682825411940   -0.762997835770    0.199924781126
 H   -1.764715674420   -2.483845429034    0.188169882727
LI   -1.646288597902   -1.437735156815   -4.302992019773
