17

 N   -1.639612098872   -1.477301332285    0.201267928505
 C   -0.429424032028   -0.822095128609    0.205229552473
 N    0.803988382275   -1.420772823071    0.217267837378
 C    1.774411582331   -0.530596681460    0.205395380405
 N    1.571334744918    0.831041452054    0.198560220063
 H    2.375161870169    1.451001991809    0.116572197641
 N    3.099866336568   -0.949271403140    0.127048077170
 H    3.754402541900   -0.417468178740    0.694688853900
 H    3.178671423959   -1.949971547075    0.288631415159
 C    0.312061002601    1.517075155585    0.211514006740
 O    0.284480633496    2.745248240362    0.207425878312
 C   -0.760724123375    0.543381766311    0.217715204680
 N   -2.131797425144    0.729712811624    0.217640019964
 C   -2.625320919655   -0.508890202421    0.207309920299
 H   -3.682818832923   -0.763036824253    0.204363275873
 H   -1.764709095403   -2.483884417517    0.192608377474
LI   -1.646430239329   -1.436895763364   -4.398549557327
