17

 N   -1.639605519854   -1.477340320768    0.205706423251
 C   -0.429417453010   -0.822134117092    0.209668047219
 N    0.803994961293   -1.420811811554    0.221706332124
 C    1.774418161349   -0.530635669943    0.209833875151
 N    1.571341323936    0.831002463571    0.202998714809
 H    2.375168449187    1.450963003326    0.121010692387
 N    3.099872915586   -0.949310391623    0.131486571916
 H    3.754409120918   -0.417507167223    0.699127348646
 H    3.178678002977   -1.950010535558    0.293069909905
 C    0.312067581619    1.517036167102    0.215952501486
 O    0.284487212514    2.745209251879    0.211864373058
 C   -0.760717544357    0.543342777828    0.222153699426
 N   -2.131790846126    0.729673823141    0.222078514710
 C   -2.625314340637   -0.508929190904    0.211748415045
 H   -3.682812253905   -0.763075812736    0.208801770619
 H   -1.764702516385   -2.483923406000    0.197046872220
LI   -1.646571880756   -1.436056369914   -4.494107094881
