17

 N   -1.639579203783   -1.477496274700    0.223460402237
 C   -0.429391136939   -0.822290071024    0.227422026205
 N    0.804021277364   -1.420967765486    0.239460311110
 C    1.774444477420   -0.530791623875    0.227587854137
 N    1.571367640007    0.830846509639    0.220752693795
 H    2.375194765258    1.450807049394    0.138764671373
 N    3.099899231657   -0.949466345555    0.149240550902
 H    3.754435436989   -0.417663121155    0.716881327632
 H    3.178704319048   -1.950166489490    0.310823888891
 C    0.312093897690    1.516880213170    0.233706480472
 O    0.284513528585    2.745053297947    0.229618352044
 C   -0.760691228286    0.543186823896    0.239907678412
 N   -2.131764530055    0.729517869209    0.239832493696
 C   -2.625288024566   -0.509085144836    0.229502394031
 H   -3.682785937834   -0.763231766668    0.226555749605
 H   -1.764676200314   -2.484079359932    0.214800851206
LI   -1.647138446464   -1.432698796114   -4.876337245098
