17

 N   -1.639552887712   -1.477652228631    0.241214381223
 C   -0.429364820868   -0.822446024955    0.245176005191
 N    0.804047593435   -1.421123719417    0.257214290096
 C    1.774470793491   -0.530947577806    0.245341833123
 N    1.571393956078    0.830690555708    0.238506672781
 H    2.375221081329    1.450651095463    0.156518650359
 N    3.099925547728   -0.949622299486    0.166994529888
 H    3.754461753060   -0.417819075086    0.734635306618
 H    3.178730635119   -1.950322443421    0.328577867877
 C    0.312120213761    1.516724259239    0.251460459458
 O    0.284539844656    2.744897344016    0.247372331030
 C   -0.760664912215    0.543030869965    0.257661657398
 N   -2.131738213984    0.729361915278    0.257586472682
 C   -2.625261708495   -0.509241098767    0.247256373017
 H   -3.682759621763   -0.763387720599    0.244309728591
 H   -1.764649884243   -2.484235313863    0.232554830192
LI   -1.647705012172   -1.429341222313   -5.258567395315
