17

 N   -1.639539729677   -1.477730205597    0.250091370716
 C   -0.429351662833   -0.822524001921    0.254052994684
 N    0.804060751470   -1.421201696383    0.266091279589
 C    1.774483951526   -0.531025554772    0.254218822616
 N    1.571407114113    0.830612578742    0.247383662274
 H    2.375234239364    1.450573118497    0.165395639852
 N    3.099938705763   -0.949700276452    0.175871519381
 H    3.754474911095   -0.417897052052    0.743512296111
 H    3.178743793154   -1.950400420387    0.337454857370
 C    0.312133371796    1.516646282273    0.260337448951
 O    0.284553002691    2.744819367050    0.256249320523
 C   -0.760651754180    0.542952892999    0.266538646891
 N   -2.131725055949    0.729283938312    0.266463462175
 C   -2.625248550460   -0.509319075733    0.256133362510
 H   -3.682746463728   -0.763465697565    0.253186718084
 H   -1.764636726208   -2.484313290829    0.241431819685
LI   -1.647988295026   -1.427662435413   -5.449682470423
