17

 N   -1.639513413606   -1.477886159529    0.267845349702
 C   -0.429325346762   -0.822679955853    0.271806973670
 N    0.804087067541   -1.421357650315    0.283845258575
 C    1.774510267597   -0.531181508704    0.271972801602
 N    1.571433430184    0.830456624810    0.265137641260
 H    2.375260555435    1.450417164565    0.183149618838
 N    3.099965021834   -0.949856230384    0.193625498367
 H    3.754501227166   -0.418053005984    0.761266275097
 H    3.178770109225   -1.950556374319    0.355208836356
 C    0.312159687867    1.516490328341    0.278091427937
 O    0.284579318762    2.744663413118    0.274003299509
 C   -0.760625438109    0.542796939067    0.284292625877
 N   -2.131698739878    0.729127984380    0.284217441161
 C   -2.625222234389   -0.509475029665    0.273887341496
 H   -3.682720147657   -0.763621651497    0.270940697070
 H   -1.764610410137   -2.484469244761    0.259185798671
LI   -1.648554860735   -1.424304861612   -5.831912620640
