17

 N   -1.639473939500   -1.478120090426    0.294476318181
 C   -0.429285872656   -0.822913886750    0.298437942149
 N    0.804126541647   -1.421591581212    0.310476227054
 C    1.774549741703   -0.531415439601    0.298603770081
 N    1.571472904290    0.830222693913    0.291768609739
 H    2.375300029541    1.450183233668    0.209780587317
 N    3.100004495940   -0.950090161281    0.220256466846
 H    3.754540701272   -0.418286936881    0.787897243576
 H    3.178809583331   -1.950790305216    0.381839804835
 C    0.312199161973    1.516256397444    0.304722396416
 O    0.284618792868    2.744429482221    0.300634267988
 C   -0.760585964003    0.542563008170    0.310923594356
 N   -2.131659265772    0.728894053483    0.310848409640
 C   -2.625182760283   -0.509708960562    0.300518309975
 H   -3.682680673551   -0.763855582394    0.297571665549
 H   -1.764570936031   -2.484703175658    0.285816767150
LI   -1.649404709297   -1.419268500911   -6.405257845965
