17

 N   -1.639467360483   -1.478159078909    0.298914812928
 C   -0.429279293639   -0.822952875233    0.302876436896
 N    0.804133120664   -1.421630569695    0.314914721801
 C    1.774556320720   -0.531454428084    0.303042264828
 N    1.571479483307    0.830183705430    0.296207104486
 H    2.375306608558    1.450144245185    0.214219082064
 N    3.100011074957   -0.950129149764    0.224694961593
 H    3.754547280289   -0.418325925364    0.792335738323
 H    3.178816162348   -1.950829293699    0.386278299582
 C    0.312205740990    1.516217408961    0.309160891163
 O    0.284625371885    2.744390493738    0.305072762735
 C   -0.760579384986    0.542524019687    0.315362089103
 N   -2.131652686755    0.728855065000    0.315286904387
 C   -2.625176181266   -0.509747949045    0.304956804722
 H   -3.682674094534   -0.763894570877    0.302010160296
 H   -1.764564357014   -2.484742164141    0.290255261897
LI   -1.649546350724   -1.418429107461   -6.500815383519
