17

 N   -1.639454202447   -1.478237055875    0.307791802421
 C   -0.429266135603   -0.823030852199    0.311753426389
 N    0.804146278700   -1.421708546661    0.323791711294
 C    1.774569478756   -0.531532405050    0.311919254321
 N    1.571492641343    0.830105728464    0.305084093979
 H    2.375319766594    1.450066268219    0.223096071557
 N    3.100024232993   -0.950207126730    0.233571951086
 H    3.754560438325   -0.418403902330    0.801212727816
 H    3.178829320384   -1.950907270665    0.395155289075
 C    0.312218899026    1.516139431995    0.318037880656
 O    0.284638529921    2.744312516772    0.313949752228
 C   -0.760566226950    0.542446042721    0.324239078596
 N   -2.131639528719    0.728777088034    0.324163893880
 C   -2.625163023230   -0.509825926011    0.313833794215
 H   -3.682660936498   -0.763972547843    0.310887149789
 H   -1.764551198978   -2.484820141107    0.299132251390
LI   -1.649829633578   -1.416750320560   -6.691930458627
