17

 N   -1.639447623429   -1.478276044358    0.312230297167
 C   -0.429259556585   -0.823069840682    0.316191921135
 N    0.804152857718   -1.421747535144    0.328230206040
 C    1.774576057774   -0.531571393533    0.316357749067
 N    1.571499220361    0.830066739981    0.309522588725
 H    2.375326345612    1.450027279736    0.227534566303
 N    3.100030812011   -0.950246115213    0.238010445832
 H    3.754567017343   -0.418442890813    0.805651222562
 H    3.178835899402   -1.950946259148    0.399593783821
 C    0.312225478044    1.516100443512    0.322476375402
 O    0.284645108939    2.744273528289    0.318388246974
 C   -0.760559647932    0.542407054238    0.328677573342
 N   -2.131632949701    0.728738099551    0.328602388626
 C   -2.625156444212   -0.509864914494    0.318272288961
 H   -3.682654357480   -0.764011536326    0.315325644535
 H   -1.764544619960   -2.484859129590    0.303570746136
LI   -1.649971275005   -1.415910927110   -6.787487996181
