17

 N   -1.639401570306   -1.478548963738    0.343299760393
 C   -0.429213503462   -0.823342760062    0.347261384361
 N    0.804198910841   -1.422020454524    0.359299669266
 C    1.774622110897   -0.531844312913    0.347427212293
 N    1.571545273484    0.829793820601    0.340592051951
 H    2.375372398735    1.449754360356    0.258604029529
 N    3.100076865134   -0.950519034593    0.269079909058
 H    3.754613070466   -0.418715810193    0.836720685788
 H    3.178881952525   -1.951219178528    0.430663247047
 C    0.312271531167    1.515827524132    0.353545838628
 O    0.284691162062    2.744000608909    0.349457710200
 C   -0.760513594809    0.542134134858    0.359747036568
 N   -2.131586896578    0.728465180171    0.359671851852
 C   -2.625110391089   -0.510137833874    0.349341752187
 H   -3.682608304357   -0.764284455706    0.346395107761
 H   -1.764498566837   -2.485132048970    0.334640209362
LI   -1.650962764994   -1.410035172959   -7.456390759061
