17

 N   -1.639394991288   -1.478587952221    0.347738255139
 C   -0.429206924444   -0.823381748545    0.351699879107
 N    0.804205489859   -1.422059443007    0.363738164012
 C    1.774628689915   -0.531883301396    0.351865707039
 N    1.571551852502    0.829754832118    0.345030546697
 H    2.375378977753    1.449715371873    0.263042524275
 N    3.100083444152   -0.950558023076    0.273518403804
 H    3.754619649484   -0.418754798676    0.841159180534
 H    3.178888531543   -1.951258167011    0.435101741793
 C    0.312278110185    1.515788535649    0.357984333374
 O    0.284697741080    2.743961620426    0.353896204946
 C   -0.760507015791    0.542095146375    0.364185531314
 N   -2.131580317560    0.728426191688    0.364110346598
 C   -2.625103812071   -0.510176822357    0.353780246933
 H   -3.682601725339   -0.764323444189    0.350833602507
 H   -1.764491987819   -2.485171037453    0.339078704108
LI   -1.651104406421   -1.409195779509   -7.551948296615
