17

 N   -1.639388412270   -1.478626940704    0.352176749886
 C   -0.429200345426   -0.823420737028    0.356138373854
 N    0.804212068877   -1.422098431490    0.368176658759
 C    1.774635268933   -0.531922289879    0.356304201786
 N    1.571558431520    0.829715843635    0.349469041444
 H    2.375385556771    1.449676383390    0.267481019022
 N    3.100090023170   -0.950597011559    0.277956898551
 H    3.754626228502   -0.418793787159    0.845597675281
 H    3.178895110561   -1.951297155494    0.439540236540
 C    0.312284689203    1.515749547166    0.362422828121
 O    0.284704320098    2.743922631943    0.358334699693
 C   -0.760500436773    0.542056157892    0.368624026061
 N   -2.131573738542    0.728387203205    0.368548841345
 C   -2.625097233053   -0.510215810840    0.358218741680
 H   -3.682595146321   -0.764362432672    0.355272097254
 H   -1.764485408801   -2.485210025936    0.343517198855
LI   -1.651246047848   -1.408356386059   -7.647505834169
