17

 N   -1.639375254235   -1.478704917669    0.361053739379
 C   -0.429187187391   -0.823498713993    0.365015363347
 N    0.804225226912   -1.422176408455    0.377053648252
 C    1.774648426968   -0.532000266844    0.365181191279
 N    1.571571589555    0.829637866670    0.358346030937
 H    2.375398714806    1.449598406425    0.276358008515
 N    3.100103181205   -0.950674988524    0.286833888044
 H    3.754639386537   -0.418871764124    0.854474664774
 H    3.178908268596   -1.951375132459    0.448417226033
 C    0.312297847238    1.515671570201    0.371299817614
 O    0.284717478133    2.743844654978    0.367211689186
 C   -0.760487278738    0.541978180927    0.377501015554
 N   -2.131560580507    0.728309226240    0.377425830838
 C   -2.625084075018   -0.510293787805    0.367095731173
 H   -3.682581988286   -0.764440409637    0.364149086747
 H   -1.764472250766   -2.485288002901    0.352394188348
LI   -1.651529330702   -1.406677599159   -7.838620909277
