17

 N   -1.639355517182   -1.478821883118    0.374369223618
 C   -0.429167450338   -0.823615679442    0.378330847586
 N    0.804244963965   -1.422293373904    0.390369132491
 C    1.774668164021   -0.532117232293    0.378496675518
 N    1.571591326608    0.829520901221    0.371661515176
 H    2.375418451859    1.449481440976    0.289673492754
 N    3.100122918258   -0.950791953973    0.300149372283
 H    3.754659123590   -0.418988729573    0.867790149013
 H    3.178928005649   -1.951492097908    0.461732710272
 C    0.312317584291    1.515554604752    0.384615301853
 O    0.284737215186    2.743727689529    0.380527173425
 C   -0.760467541685    0.541861215478    0.390816499793
 N   -2.131540843454    0.728192260791    0.390741315077
 C   -2.625064337965   -0.510410753254    0.380411215412
 H   -3.682562251233   -0.764557375086    0.377464570986
 H   -1.764452513713   -2.485404968350    0.365709672587
LI   -1.651954254984   -1.404159418808   -8.125293521940
