17

 N   -1.639309464058   -1.479094802498    0.405438686844
 C   -0.429121397214   -0.823888598822    0.409400310812
 N    0.804291017089   -1.422566293284    0.421438595717
 C    1.774714217145   -0.532390151673    0.409566138744
 N    1.571637379732    0.829247981841    0.402730978402
 H    2.375464504983    1.449208521596    0.320742955980
 N    3.100168971382   -0.951064873353    0.331218835509
 H    3.754705176714   -0.419261648953    0.898859612239
 H    3.178974058773   -1.951765017288    0.492802173498
 C    0.312363637415    1.515281685372    0.415684765079
 O    0.284783268310    2.743454770149    0.411596636651
 C   -0.760421488561    0.541588296098    0.421885963019
 N   -2.131494790330    0.727919341411    0.421810778303
 C   -2.625018284841   -0.510683672634    0.411480678638
 H   -3.682516198109   -0.764830294466    0.408534034212
 H   -1.764406460589   -2.485677887730    0.396779135813
LI   -1.652945744973   -1.398283664657   -8.794196284819
