17

 N   -1.639296306023   -1.479172779464    0.414315676337
 C   -0.429108239179   -0.823966575788    0.418277300305
 N    0.804304175124   -1.422644270250    0.430315585210
 C    1.774727375180   -0.532468128639    0.418443128237
 N    1.571650537767    0.829170004875    0.411607967895
 H    2.375477663018    1.449130544630    0.329619945473
 N    3.100182129417   -0.951142850319    0.340095825002
 H    3.754718334749   -0.419339625919    0.907736601732
 H    3.178987216808   -1.951842994254    0.501679162991
 C    0.312376795450    1.515203708406    0.424561754572
 O    0.284796426345    2.743376793183    0.420473626144
 C   -0.760408330526    0.541510319132    0.430762952512
 N   -2.131481632295    0.727841364445    0.430687767796
 C   -2.625005126806   -0.510761649600    0.420357668131
 H   -3.682503040074   -0.764908271432    0.417411023705
 H   -1.764393302554   -2.485755864696    0.405656125306
LI   -1.653229027827   -1.396604877757   -8.985311359927
