17

 N   -1.639289727005   -1.479211767947    0.418754171083
 C   -0.429101660161   -0.824005564271    0.422715795051
 N    0.804310754142   -1.422683258733    0.434754079956
 C    1.774733954198   -0.532507117122    0.422881622983
 N    1.571657116785    0.829131016392    0.416046462641
 H    2.375484242036    1.449091556147    0.334058440219
 N    3.100188708435   -0.951181838802    0.344534319748
 H    3.754724913767   -0.419378614402    0.912175096478
 H    3.178993795826   -1.951881982737    0.506117657737
 C    0.312383374468    1.515164719923    0.429000249318
 O    0.284803005363    2.743337804700    0.424912120890
 C   -0.760401751508    0.541471330649    0.435201447258
 N   -2.131475053277    0.727802375962    0.435126262542
 C   -2.624998547788   -0.510800638083    0.424796162877
 H   -3.682496461056   -0.764947259915    0.421849518451
 H   -1.764386723536   -2.485794853179    0.410094620052
LI   -1.653370669254   -1.395765484306   -9.080868897482
