17

 N   -1.639269989952   -1.479328733396    0.432069655323
 C   -0.429081923108   -0.824122529720    0.436031279291
 N    0.804330491195   -1.422800224182    0.448069564196
 C    1.774753691251   -0.532624082571    0.436197107223
 N    1.571676853838    0.829014050943    0.429361946881
 H    2.375503979089    1.448974590698    0.347373924459
 N    3.100208445488   -0.951298804251    0.357849803988
 H    3.754744650820   -0.419495579851    0.925490580718
 H    3.179013532879   -1.951998948186    0.519433141977
 C    0.312403111521    1.515047754474    0.442315733558
 O    0.284822742416    2.743220839251    0.438227605130
 C   -0.760382014455    0.541354365200    0.448516931498
 N   -2.131455316224    0.727685410513    0.448441746782
 C   -2.624978810735   -0.510917603532    0.438111647117
 H   -3.682476724003   -0.765064225364    0.435165002691
 H   -1.764366986483   -2.485911818628    0.423410104292
LI   -1.653795593535   -1.393247303956   -9.367541510144
