6

 H   -0.210496013673    1.771307164190    1.854288370076
 H    0.239560986327    0.109382164190    2.310788370076
 H   -1.422406013673    0.467993164190    1.779562370076
 C   -0.357337013673    0.705504164190    1.594205370076
 S    0.125831986327    0.356403164190   -0.153077629924
 K    0.042839325909   -0.570481104489   -0.519134689399
