6

 H   -0.206734113054    1.813321078264    1.870881045519
 H    0.243322886946    0.151396078264    2.327381045519
 H   -1.418644113054    0.510007078264    1.796155045519
 C   -0.353575113054    0.747518078264    1.610798045519
 S    0.129593886946    0.398417078264   -0.136484954481
 K    0.038301960485   -0.621155617283   -0.539147719904
