6

 H   -0.199210311818    1.897348906411    1.904066396403
 H    0.250846688182    0.235423906411    2.360566396403
 H   -1.411120311818    0.594034906411    1.829340396403
 C   -0.346051311818    0.831545906411    1.643983396403
 S    0.137117688182    0.482444906411   -0.103299603597
 K    0.029227229638   -0.722504642872   -0.579173780915
