6

 H   -0.191686510581    1.981376734557    1.937251747288
 H    0.258370489419    0.319451734557    2.393751747288
 H   -1.403596510581    0.678062734557    1.862525747288
 C   -0.338527510581    0.915573734557    1.677168747288
 S    0.144641489419    0.566472734557   -0.070114252712
 K    0.020152498791   -0.823853668461   -0.619199841925
