6

 H   -0.184162709344    2.065404562704    1.970437098172
 H    0.265894290656    0.403479562704    2.426937098172
 H   -1.396072709344    0.762090562704    1.895711098172
 C   -0.331003709344    0.999601562704    1.710354098172
 S    0.152165290656    0.650500562704   -0.036928901828
 K    0.011077767945   -0.925202694050   -0.659225902936
