6

 H   -0.180400808726    2.107418476778    1.987029773615
 H    0.269656191274    0.445493476778    2.443529773615
 H   -1.392310808726    0.804104476778    1.912303773615
 C   -0.327241808726    1.041615476778    1.726946773615
 S    0.155927191274    0.692514476778   -0.020336226385
 K    0.006540402521   -0.975877206845   -0.679238933441
