6

 H    0.128075041985    5.552559430797    3.347629159883
 H    0.578132041985    3.890634430797    3.804129159883
 H   -1.083834958015    4.249245430797    3.272903159883
 C   -0.018765958015    4.486756430797    3.087546159883
 S    0.464403041985    4.137655430797    1.340263159883
 K   -0.365523562200   -5.131187255994   -2.320307434870
