6

 H   -0.161591305633    2.317488047145    2.069993150826
 H    0.288465694367    0.655563047145    2.526493150826
 H   -1.373501305633    1.014174047145    1.995267150826
 C   -0.308432305633    1.251685047145    1.809910150826
 S    0.174736694367    0.902584047145    0.062627150826
 K   -0.016146424596   -1.229249770817   -0.779304085967
