6

 H   -0.135258001304    2.611585445659    2.186141878922
 H    0.314798998696    0.949660445659    2.642641878922
 H   -1.347168001304    1.308271445659    2.111415878922
 C   -0.282099001304    1.545782445659    1.926058878922
 S    0.201069998696    1.196681445659    0.178775878922
 K   -0.047907982560   -1.583971360379   -0.919395299504
