6

 H   -0.123972299449    2.737627187879    2.235919905249
 H    0.326084700551    1.075702187879    2.692419905249
 H   -1.335882299449    1.434313187879    2.161193905249
 C   -0.270813299449    1.671824187879    1.975836905249
 S    0.212355700551    1.322723187879    0.228553905249
 K   -0.061520078830   -1.735994898762   -0.979434391019
