6

 H   -0.116448498212    2.821655016026    2.269105256134
 H    0.333608501788    1.159730016026    2.725605256134
 H   -1.328358498212    1.518341016026    2.194379256134
 C   -0.263289498212    1.755852016026    2.009022256134
 S    0.219879501788    1.406751016026    0.261739256134
 K   -0.070594809677   -1.837343924351   -1.019460452030
