6

 H   -0.105162796357    2.947696758246    2.318883282461
 H    0.344894203643    1.285771758246    2.775383282461
 H   -1.317072796357    1.644382758246    2.244157282461
 C   -0.252003796357    1.881893758246    2.058800282461
 S    0.231165203643    1.532792758246    0.311517282461
 K   -0.084206905947   -1.989367462735   -1.079499543546
