6

 H   -0.101400895739    2.989710672319    2.335475957903
 H    0.348656104261    1.327785672319    2.791975957903
 H   -1.313310895739    1.686396672319    2.260749957903
 C   -0.248241895739    1.923907672319    2.075392957903
 S    0.234927104261    1.574806672319    0.328109957903
 K   -0.088744271371   -2.040041975529   -1.099512574051
