6

 H   -0.097638995120    3.031724586393    2.352068633345
 H    0.352418004880    1.369799586393    2.808568633345
 H   -1.309548995120    1.728410586393    2.277342633345
 C   -0.244479995120    1.965921586393    2.091985633345
 S    0.238689004880    1.616820586393    0.344702633345
 K   -0.093281636794   -2.090716488324   -1.119525604556
