6

 H   -0.093877094502    3.073738500466    2.368661308787
 H    0.356179905498    1.411813500466    2.825161308787
 H   -1.305787094502    1.770424500466    2.293935308787
 C   -0.240718094502    2.007935500466    2.108578308787
 S    0.242450905498    1.658834500466    0.361295308787
 K   -0.097819002218   -2.141391001119   -1.139538635061
