6

 H   -0.082591392647    3.199780242686    2.418439335114
 H    0.367465607353    1.537855242686    2.874939335114
 H   -1.294501392647    1.896466242686    2.343713335114
 C   -0.229432392647    2.133977242686    2.158356335114
 S    0.253736607353    1.784876242686    0.411073335114
 K   -0.111431098488   -2.293414539502   -1.199577726577
