6

 H   -0.071305690791    3.325821984907    2.468217361441
 H    0.378751309209    1.663896984907    2.924717361441
 H   -1.283215690791    2.022507984907    2.393491361441
 C   -0.218146690791    2.260018984907    2.208134361441
 S    0.265022309209    1.910917984907    0.460851361441
 K   -0.125043194758   -2.445438077886   -1.259616818093
