6

 H   -0.067543790173    3.367835898980    2.484810036883
 H    0.382513209827    1.705910898980    2.941310036883
 H   -1.279453790173    2.064521898980    2.410084036883
 C   -0.214384790173    2.302032898980    2.224727036883
 S    0.268784209827    1.952931898980    0.477444036883
 K   -0.129580560182   -2.496112590680   -1.279629848598
