6

 H   -0.060019988936    3.451863727127    2.517995387768
 H    0.390037011064    1.789938727127    2.974495387768
 H   -1.271929988936    2.148549727127    2.443269387768
 C   -0.206860988936    2.386060727127    2.257912387768
 S    0.276308011064    2.036959727127    0.510629387768
 K   -0.138655291029   -2.597461616269   -1.319655909609
