6

 H   -0.048734287081    3.577905469347    2.567773414095
 H    0.401322712919    1.915980469347    3.024273414095
 H   -1.260644287081    2.274591469347    2.493047414095
 C   -0.195575287081    2.512102469347    2.307690414095
 S    0.287593712919    2.163001469347    0.560407414095
 K   -0.152267387299   -2.749485154653   -1.379695001124
