6

 H   -0.044972386462    3.619919383420    2.584366089537
 H    0.405084613538    1.957994383420    3.040866089537
 H   -1.256882386462    2.316605383420    2.509640089537
 C   -0.191813386462    2.554116383420    2.324283089537
 S    0.291355613538    2.205015383420    0.577000089537
 K   -0.156804752722   -2.800159667447   -1.399708031629
