6

 H   -0.041210485844    3.661933297494    2.600958764980
 H    0.408846514156    2.000008297494    3.057458764980
 H   -1.253120485844    2.358619297494    2.526232764980
 C   -0.188051485844    2.596130297494    2.340875764980
 S    0.295117514156    2.247029297494    0.593592764980
 K   -0.161342118146   -2.850834180242   -1.419721062135
