6

 H   -0.037448585226    3.703947211567    2.617551440422
 H    0.412608414774    2.042022211567    3.074051440422
 H   -1.249358585226    2.400633211567    2.542825440422
 C   -0.184289585226    2.638144211567    2.357468440422
 S    0.298879414774    2.289043211567    0.610185440422
 K   -0.165879483569   -2.901508693036   -1.439734092640
