6

 H   -0.029924783989    3.787975039714    2.650736791306
 H    0.420132216011    2.126050039714    3.107236791306
 H   -1.241834783989    2.484661039714    2.576010791306
 C   -0.176765783989    2.722172039714    2.390653791306
 S    0.306403216011    2.373071039714    0.643370791306
 K   -0.174954214416   -3.002857718625   -1.479760153650
