6

 H   -0.014877181515    3.956030696008    2.717107493076
 H    0.435179818485    2.294105696008    3.173607493076
 H   -1.226787181515    2.652716696008    2.642381493076
 C   -0.161718181515    2.890227696008    2.457024493076
 S    0.321450818485    2.541126696008    0.709741493076
 K   -0.193103676110   -3.205555769803   -1.559812275671
