6

 H   -0.003591479660    4.082072438228    2.766885519402
 H    0.446465520340    2.420147438228    3.223385519402
 H   -1.215501479660    2.778758438228    2.692159519402
 C   -0.150432479660    3.016269438228    2.506802519402
 S    0.332736520340    2.667168438228    0.759519519402
 K   -0.206715772380   -3.357579308187   -1.619851367187
