6

 H    0.000170420959    4.124086352301    2.783478194845
 H    0.450227420959    2.462161352301    3.239978194845
 H   -1.211739579041    2.820772352301    2.708752194845
 C   -0.146670579041    3.058283352301    2.523395194845
 S    0.336498420959    2.709182352301    0.776112194845
 K   -0.211253137804   -3.408253820981   -1.639864397692
