6

 H    0.007694222195    4.208114180448    2.816663545729
 H    0.457751222195    2.546189180448    3.273163545729
 H   -1.204215777805    2.904800180448    2.741937545729
 C   -0.139146777805    3.142311180448    2.556580545729
 S    0.344022222195    2.793210180448    0.809297545729
 K   -0.220327868650   -3.509602846570   -1.679890458703
