6

 H    0.037789427143    4.544225493036    2.949404949268
 H    0.487846427143    2.882300493036    3.405904949268
 H   -1.174120572857    3.240911493036    2.874678949268
 C   -0.109051572857    3.478422493036    2.689321949268
 S    0.374117427143    3.129321493036    0.942038949268
 K   -0.256626792038   -3.914998948926   -1.839994702745
