6

 H    0.041551327761    4.586239407109    2.965997624710
 H    0.491608327761    2.924314407109    3.422497624710
 H   -1.170358672239    3.282925407109    2.891271624710
 C   -0.105289672239    3.520436407109    2.705914624710
 S    0.377879327761    3.171335407109    0.958631624710
 K   -0.261164157461   -3.965673461721   -1.860007733250
