6

 H    0.049075128998    4.670267235256    2.999182975595
 H    0.499132128998    3.008342235256    3.455682975595
 H   -1.162834871002    3.366953235256    2.924456975595
 C   -0.097765871002    3.604464235256    2.739099975595
 S    0.385403128998    3.255363235256    0.991816975595
 K   -0.270238888308   -4.067022487310   -1.900033794260
