6

 H    0.052837029616    4.712281149329    3.015775651037
 H    0.502894029616    3.050356149329    3.472275651037
 H   -1.159072970384    3.408967149329    2.941049651037
 C   -0.094003970384    3.646478149329    2.755692651037
 S    0.389165029616    3.297377149329    1.008409651037
 K   -0.274776253732   -4.117697000104   -1.920046824766
