6

 H    0.060360830853    4.796308977476    3.048961001921
 H    0.510417830853    3.134383977476    3.505461001921
 H   -1.151549169147    3.492994977476    2.974235001921
 C   -0.086480169147    3.730505977476    2.788878001921
 S    0.396688830853    3.381404977476    1.041595001921
 K   -0.283850984578   -4.219046025693   -1.960072885776
