6

 H    0.079170333945    5.006378547843    3.131924379133
 H    0.529227333945    3.344453547843    3.588424379133
 H   -1.132739666055    3.703064547843    3.057198379133
 C   -0.067670666055    3.940575547843    2.871841379133
 S    0.415498333945    3.591474547843    1.124558379133
 K   -0.306537811696   -4.472418589666   -2.060138038302
