6

 H    0.082932234564    5.048392461916    3.148517054575
 H    0.532989234564    3.386467461916    3.605017054575
 H   -1.128977765436    3.745078461916    3.073791054575
 C   -0.063908765436    3.982589461916    2.888434054575
 S    0.419260234564    3.633488461916    1.141151054575
 K   -0.311075177119   -4.523093102460   -2.080151068808
