6

 H    0.090456035801    5.132420290063    3.181702405460
 H    0.540513035801    3.470495290063    3.638202405460
 H   -1.121453964199    3.829106290063    3.106976405460
 C   -0.056384964199    4.066617290063    2.921619405460
 S    0.426784035801    3.717516290063    1.174336405460
 K   -0.320149907966   -4.624442128049   -2.120177129818
