6

 H    0.116789340130    5.426517688577    3.297851133556
 H    0.566846340130    3.764592688577    3.754351133556
 H   -1.095120659870    4.123203688577    3.223125133556
 C   -0.030051659870    4.360714688577    3.037768133556
 S    0.453117340130    4.011613688577    1.290485133556
 K   -0.351911465930   -4.979163717611   -2.260268343355
