16

 N   -3.208712316301   -0.421609497579    0.548724169728
 C   -1.976586584034   -1.051899777587    0.549679130036
 N   -1.706445647908   -2.372785252555    0.546214941089
 C   -0.378316479445   -2.590979145305    0.561782369752
 H   -0.064508196475   -3.637657877795    0.565161940443
 N    0.634032963596   -1.682998188164    0.575753640027
 C    0.321816219689   -0.372177104915    0.571107236127
 N    1.329443174491    0.552321532390    0.529285399196
 H    2.260894711878    0.221791423638    0.751743333329
 H    1.096705668464    1.512292287429    0.754095644636
 C   -1.043684621185    0.004516748952    0.562336148412
 N   -1.667213932376    1.243482449582    0.572214357430
 C   -2.967139419533    0.935403061221    0.563759504272
 H   -3.777192948320    1.661983862323    0.567807642135
 H   -4.112501993471   -0.881866621413    0.541121113795
RB    1.670418695679    0.890151667539   -0.891843199396
