16

 N   -3.243812048997   -0.456385446888    0.695013949603
 C   -2.011686316730   -1.086675726896    0.695968909911
 N   -1.741545380604   -2.407561201864    0.692504720964
 C   -0.413416212141   -2.625755094614    0.708072149627
 H   -0.099607929171   -3.672433827104    0.711451720318
 N    0.598933230900   -1.717774137473    0.722043419902
 C    0.286716486993   -0.406953054224    0.717397016002
 N    1.294343441795    0.517545583081    0.675575179071
 H    2.225794979182    0.187015474329    0.898033113204
 H    1.061605935768    1.477516338120    0.900385424511
 C   -1.078784353881   -0.030259200357    0.708625928287
 N   -1.702313665072    1.208706500273    0.718504137305
 C   -3.002239152229    0.900627111912    0.710049284147
 H   -3.812292681016    1.627207913014    0.714097422010
 H   -4.147601726167   -0.916642570722    0.687410893670
RB    1.726245768633    0.945463754270   -1.124521045812
