16

 N   -3.305236581216   -0.517243358179    0.951021064385
 C   -2.073110848949   -1.147533638187    0.951976024693
 N   -1.802969912823   -2.468419113155    0.948511835746
 C   -0.474840744360   -2.686613005905    0.964079264409
 H   -0.161032461390   -3.733291738395    0.967458835100
 N    0.537508698681   -1.778632048764    0.978050534684
 C    0.225291954774   -0.467810965515    0.973404130784
 N    1.232918909576    0.456687671790    0.931582293853
 H    2.164370446963    0.126157563038    1.154040227986
 H    1.000181403549    1.416658426829    1.156392539293
 C   -1.140208886100   -0.091117111648    0.964633043069
 N   -1.763738197291    1.147848588982    0.974511252087
 C   -3.063663684448    0.839769200621    0.966056398929
 H   -3.873717213235    1.566350001723    0.970104536792
 H   -4.209026258386   -0.977500482013    0.943418008452
RB    1.823943146303    1.042259906049   -1.531707277040
