16

 N   -3.322786447564   -0.534631332833    1.024165954322
 C   -2.090660715297   -1.164921612841    1.025120914630
 N   -1.820519779171   -2.485807087809    1.021656725683
 C   -0.492390610708   -2.704000980559    1.037224154346
 H   -0.178582327738   -3.750679713049    1.040603725037
 N    0.519958832333   -1.796020023418    1.051195424621
 C    0.207742088426   -0.485198940169    1.046549020721
 N    1.215369043228    0.439299697136    1.004727183790
 H    2.146820580615    0.108769588384    1.227185117923
 H    0.982631537201    1.399270452175    1.229537429230
 C   -1.157758752448   -0.108505086302    1.037777933006
 N   -1.781288063639    1.130460614328    1.047656142024
 C   -3.081213550796    0.822381225967    1.039201288866
 H   -3.891267079583    1.548962027069    1.043249426729
 H   -4.226576124734   -0.994888456667    1.016562898389
RB    1.851856682780    1.069915949415   -1.648046200248
