16

 N   -3.340336313912   -0.552019307488    1.097310844260
 C   -2.108210581645   -1.182309587496    1.098265804568
 N   -1.838069645519   -2.503195062464    1.094801615621
 C   -0.509940477056   -2.721388955214    1.110369044284
 H   -0.196132194086   -3.768067687704    1.113748614975
 N    0.502408965985   -1.813407998073    1.124340314559
 C    0.190192222078   -0.502586914824    1.119693910659
 N    1.197819176880    0.421911722481    1.077872073728
 H    2.129270714267    0.091381613729    1.300330007861
 H    0.965081670853    1.381882477520    1.302682319168
 C   -1.175308618796   -0.125893060957    1.110922822944
 N   -1.798837929987    1.113072639673    1.120801031962
 C   -3.098763417144    0.804993251312    1.112346178804
 H   -3.908816945931    1.531574052414    1.116394316667
 H   -4.244125991082   -1.012276431322    1.089707788327
RB    1.879770219257    1.097571992780   -1.764385123456
