16

 N   -3.349111247086   -0.560713294815    1.133883289229
 C   -2.116985514819   -1.191003574823    1.134838249537
 N   -1.846844578693   -2.511889049791    1.131374060590
 C   -0.518715410230   -2.730082942541    1.146941489253
 H   -0.204907127260   -3.776761675031    1.150321059944
 N    0.493634032811   -1.822101985400    1.160912759528
 C    0.181417288904   -0.511280902151    1.156266355628
 N    1.189044243706    0.413217735154    1.114444518697
 H    2.120495781093    0.082687626402    1.336902452830
 H    0.956306737679    1.373188490193    1.339254764137
 C   -1.184083551970   -0.134587048284    1.147495267913
 N   -1.807612863161    1.104378652346    1.157373476931
 C   -3.107538350318    0.796299263985    1.148918623773
 H   -3.917591879105    1.522880065087    1.152966761636
 H   -4.252900924256   -1.020970418649    1.126280233296
RB    1.893726987495    1.111400014463   -1.822554585060
