16

 N   -3.357886180260   -0.569407282142    1.170455734198
 C   -2.125760447993   -1.199697562150    1.171410694506
 N   -1.855619511867   -2.520583037118    1.167946505559
 C   -0.527490343404   -2.738776929868    1.183513934222
 H   -0.213682060434   -3.785455662358    1.186893504913
 N    0.484859099637   -1.830795972727    1.197485204497
 C    0.172642355730   -0.519974889478    1.192838800597
 N    1.180269310532    0.404523747827    1.151016963666
 H    2.111720847919    0.073993639075    1.373474897799
 H    0.947531804505    1.364494502866    1.375827209106
 C   -1.192858485144   -0.143281035611    1.184067712882
 N   -1.816387796335    1.095684665019    1.193945921900
 C   -3.116313283492    0.787605276658    1.185491068742
 H   -3.926366812279    1.514186077760    1.189539206605
 H   -4.261675857430   -1.029664405976    1.162852678265
RB    1.907683755734    1.125228036145   -1.880724046664
