16

 N   -3.410535779304   -0.621571206106    1.389890404010
 C   -2.178410047037   -1.251861486114    1.390845364318
 N   -1.908269110911   -2.572746961082    1.387381175371
 C   -0.580139942448   -2.790940853832    1.402948604034
 H   -0.266331659478   -3.837619586322    1.406328174725
 N    0.432209500593   -1.882959896691    1.416919874309
 C    0.119992756686   -0.572138813442    1.412273470409
 N    1.127619711488    0.352359823863    1.370451633478
 H    2.059071248875    0.021829715111    1.592909567611
 H    0.894882205461    1.312330578902    1.595261878918
 C   -1.245508084188   -0.195444959575    1.403502382694
 N   -1.869037395379    1.043520741055    1.413380591712
 C   -3.168962882536    0.735441352694    1.404925738554
 H   -3.979016411323    1.462022153796    1.408973876417
 H   -4.314325456474   -1.081828329940    1.382287348077
RB    1.991424365165    1.208196166242   -2.229740816287
