16

 N   -3.419310712478   -0.630265193433    1.426462848979
 C   -2.187184980211   -1.260555473441    1.427417809287
 N   -1.917044044085   -2.581440948409    1.423953620340
 C   -0.588914875622   -2.799634841159    1.439521049003
 H   -0.275106592652   -3.846313573649    1.442900619694
 N    0.423434567419   -1.891653884018    1.453492319278
 C    0.111217823512   -0.580832800769    1.448845915378
 N    1.118844778314    0.343665836536    1.407024078447
 H    2.050296315701    0.013135727784    1.629482012580
 H    0.886107272287    1.303636591575    1.631834323887
 C   -1.254283017362   -0.204138946902    1.440074827663
 N   -1.877812328553    1.034826753728    1.449953036681
 C   -3.177737815710    0.726747365367    1.441498183523
 H   -3.987791344497    1.453328166469    1.445546321386
 H   -4.323100389648   -1.090522317267    1.418859793046
RB    2.005381133403    1.222024187924   -2.287910277891
