16

 N   -3.445635512000   -0.656347155415    1.536180183886
 C   -2.213509779733   -1.286637435423    1.537135144194
 N   -1.943368843607   -2.607522910391    1.533670955247
 C   -0.615239675144   -2.825716803141    1.549238383910
 H   -0.301431392174   -3.872395535631    1.552617954601
 N    0.397109767897   -1.917735846000    1.563209654185
 C    0.084893023990   -0.606914762751    1.558563250285
 N    1.092519978792    0.317583874554    1.516741413354
 H    2.023971516179   -0.012946234198    1.739199347487
 H    0.859782472765    1.277554629593    1.741551658794
 C   -1.280607816884   -0.230220908884    1.549792162570
 N   -1.904137128075    1.008744791746    1.559670371588
 C   -3.204062615232    0.700665403385    1.551215518430
 H   -4.014116144019    1.427246204487    1.555263656293
 H   -4.349425189170   -1.116604279249    1.528577127953
RB    2.047251438119    1.263508252972   -2.462418662703
