16

 N   -3.454410445174   -0.665041142742    1.572752628855
 C   -2.222284712907   -1.295331422750    1.573707589163
 N   -1.952143776781   -2.616216897718    1.570243400216
 C   -0.624014608318   -2.834410790468    1.585810828879
 H   -0.310206325348   -3.881089522958    1.589190399570
 N    0.388334834723   -1.926429833327    1.599782099154
 C    0.076118090816   -0.615608750078    1.595135695254
 N    1.083745045618    0.308889887227    1.553313858323
 H    2.015196583005   -0.021640221525    1.775771792456
 H    0.851007539591    1.268860642266    1.778124103763
 C   -1.289382750058   -0.238914896211    1.586364607539
 N   -1.912912061249    1.000050804419    1.596242816557
 C   -3.212837548406    0.691971416058    1.587787963399
 H   -4.022891077193    1.418552217160    1.591836101262
 H   -4.358200122344   -1.125298266576    1.565149572922
RB    2.061208206357    1.277336274655   -2.520588124307
