16

 N   -3.480735244697   -0.691123104724    1.682469963761
 C   -2.248609512430   -1.321413384732    1.683424924069
 N   -1.978468576304   -2.642298859700    1.679960735122
 C   -0.650339407841   -2.860492752450    1.695528163785
 H   -0.336531124871   -3.907171484940    1.698907734476
 N    0.362010035200   -1.952511795309    1.709499434060
 C    0.049793291293   -0.641690712060    1.704853030160
 N    1.057420246095    0.282807925245    1.663031193229
 H    1.988871783482   -0.047722183507    1.885489127362
 H    0.824682740068    1.242778680284    1.887841438669
 C   -1.315707549581   -0.264996858193    1.696081942445
 N   -1.939236860772    0.973968842437    1.705960151463
 C   -3.239162347929    0.665889454076    1.697505298305
 H   -4.049215876716    1.392470255178    1.701553436168
 H   -4.384524921867   -1.151380228558    1.674866907828
RB    2.103078511073    1.318820339703   -2.695096509119
