16

 N   -3.489510177871   -0.699817092051    1.719042408730
 C   -2.257384445604   -1.330107372059    1.719997369038
 N   -1.987243509478   -2.650992847027    1.716533180091
 C   -0.659114341015   -2.869186739777    1.732100608754
 H   -0.345306058045   -3.915865472267    1.735480179445
 N    0.353235102026   -1.961205782636    1.746071879029
 C    0.041018358119   -0.650384699387    1.741425475129
 N    1.048645312921    0.274113937918    1.699603638198
 H    1.980096850308   -0.056416170834    1.922061572331
 H    0.815907806894    1.234084692957    1.924413883638
 C   -1.324482482755   -0.273690845520    1.732654387414
 N   -1.948011793946    0.965274855110    1.742532596432
 C   -3.247937281103    0.657195466749    1.734077743274
 H   -4.057990809890    1.383776267851    1.738125881137
 H   -4.393299855041   -1.160074215885    1.711439352797
RB    2.117035279311    1.332648361386   -2.753265970723
