16

 N   -3.515834977393   -0.725899054033    1.828759743636
 C   -2.283709245126   -1.356189334041    1.829714703944
 N   -2.013568309000   -2.677074809009    1.826250514997
 C   -0.685439140537   -2.895268701759    1.841817943660
 H   -0.371630857567   -3.941947434249    1.845197514351
 N    0.326910302504   -1.987287744618    1.855789213935
 C    0.014693558597   -0.676466661369    1.851142810035
 N    1.022320513399    0.248031975936    1.809320973104
 H    1.953772050786   -0.082498132816    2.031778907237
 H    0.789583007372    1.208002730975    2.034131218544
 C   -1.350807282277   -0.299772807502    1.842371722320
 N   -1.974336593468    0.939192893128    1.852249931338
 C   -3.274262080625    0.631113504767    1.843795078180
 H   -4.084315609412    1.357694305869    1.847843216043
 H   -4.419624654563   -1.186156177867    1.821156687703
RB    2.158905584027    1.374132426434   -2.927774355535
