16

 N   -3.524609910567   -0.734593041360    1.865332188605
 C   -2.292484178300   -1.364883321368    1.866287148913
 N   -2.022343242174   -2.685768796336    1.862822959966
 C   -0.694214073711   -2.903962689086    1.878390388629
 H   -0.380405790741   -3.950641421576    1.881769959320
 N    0.318135369330   -1.995981731945    1.892361658904
 C    0.005918625423   -0.685160648696    1.887715255004
 N    1.013545580225    0.239337988609    1.845893418073
 H    1.944997117612   -0.091192120143    2.068351352206
 H    0.780808074198    1.199308743648    2.070703663513
 C   -1.359582215451   -0.308466794829    1.878944167289
 N   -1.983111526642    0.930498905801    1.888822376307
 C   -3.283037013799    0.622419517440    1.880367523149
 H   -4.093090542586    1.349000318542    1.884415661012
 H   -4.428399587737   -1.194850165194    1.857729132672
RB    2.172862352265    1.387960448117   -2.985943817139
