16

 N   -3.542159776915   -0.751981016015    1.938477078543
 C   -2.310034044648   -1.382271296023    1.939432038851
 N   -2.039893108522   -2.703156770991    1.935967849904
 C   -0.711763940059   -2.921350663741    1.951535278567
 H   -0.397955657089   -3.968029396231    1.954914849258
 N    0.300585502982   -2.013369706600    1.965506548842
 C   -0.011631240925   -0.702548623351    1.960860144942
 N    0.995995713877    0.221950013954    1.919038308011
 H    1.927447251264   -0.108580094798    2.141496242144
 H    0.763258207850    1.181920768993    2.143848553451
 C   -1.377132081799   -0.325854769484    1.952089057227
 N   -2.000661392990    0.913110931146    1.961967266245
 C   -3.300586880147    0.605031542785    1.953512413087
 H   -4.110640408934    1.331612343887    1.957560550950
 H   -4.445949454085   -1.212238139849    1.930874022610
RB    2.200775888742    1.415616491482   -3.102282740347
