16

 N   -3.577259509611   -0.786756965324    2.084766858418
 C   -2.345133777344   -1.417047245332    2.085721818726
 N   -2.074992841218   -2.737932720300    2.082257629779
 C   -0.746863672755   -2.956126613050    2.097825058442
 H   -0.433055389785   -4.002805345540    2.101204629133
 N    0.265485770286   -2.048145655909    2.111796328717
 C   -0.046730973621   -0.737324572660    2.107149924817
 N    0.960895981181    0.187174064645    2.065328087886
 H    1.892347518568   -0.143356044107    2.287786022019
 H    0.728158475154    1.147144819684    2.290138333326
 C   -1.412231814495   -0.360630718793    2.098378837102
 N   -2.035761125686    0.878334981837    2.108257046120
 C   -3.335686612843    0.570255593476    2.099802192962
 H   -4.145740141630    1.296836394578    2.103850330825
 H   -4.481049186781   -1.247014089158    2.077163802485
RB    2.256602961696    1.470928578213   -3.334960586763
