16

 N   -3.586034442785   -0.795450952651    2.121339303387
 C   -2.353908710518   -1.425741232659    2.122294263695
 N   -2.083767774392   -2.746626707627    2.118830074748
 C   -0.755638605929   -2.964820600377    2.134397503411
 H   -0.441830322959   -4.011499332867    2.137777074102
 N    0.256710837112   -2.056839643236    2.148368773686
 C   -0.055505906795   -0.746018559987    2.143722369786
 N    0.952121048007    0.178480077318    2.101900532855
 H    1.883572585394   -0.152050031434    2.324358466988
 H    0.719383541980    1.138450832357    2.326710778295
 C   -1.421006747669   -0.369324706120    2.134951282071
 N   -2.044536058860    0.869640994510    2.144829491089
 C   -3.344461546017    0.561561606149    2.136374637931
 H   -4.154515074804    1.288142407251    2.140422775794
 H   -4.489824119955   -1.255708076485    2.113736247454
RB    2.270559729935    1.484756599895   -3.393130048367
