16

 N   -3.612359242307   -0.821532914633    2.231056638293
 C   -2.380233510040   -1.451823194641    2.232011598601
 N   -2.110092573914   -2.772708669609    2.228547409654
 C   -0.781963405451   -2.990902562359    2.244114838317
 H   -0.468155122481   -4.037581294849    2.247494409008
 N    0.230386037590   -2.082921605218    2.258086108592
 C   -0.081830706317   -0.772100521969    2.253439704692
 N    0.925796248485    0.152398115336    2.211617867761
 H    1.857247785872   -0.178131993416    2.434075801894
 H    0.693058742458    1.112368870375    2.436428113201
 C   -1.447331547191   -0.395406668102    2.244668616977
 N   -2.070860858382    0.843559032528    2.254546825995
 C   -3.370786345539    0.535479644167    2.246091972837
 H   -4.180839874326    1.262060445269    2.250140110700
 H   -4.516148919477   -1.281790038467    2.223453582360
RB    2.312430034650    1.526240664944   -3.567638433179
