16

 N   -3.647458975004   -0.856308863942    2.377346418169
 C   -2.415333242737   -1.486599143950    2.378301378477
 N   -2.145192306611   -2.807484618918    2.374837189530
 C   -0.817063138148   -3.025678511668    2.390404618193
 H   -0.503254855178   -4.072357244158    2.393784188884
 N    0.195286304893   -2.117697554527    2.404375888468
 C   -0.116930439014   -0.806876471278    2.399729484568
 N    0.890696515788    0.117622166027    2.357907647637
 H    1.822148053175   -0.212907942725    2.580365581770
 H    0.657959009761    1.077592921066    2.582717893077
 C   -1.482431279888   -0.430182617411    2.390958396853
 N   -2.105960591079    0.808783083219    2.400836605871
 C   -3.405886078236    0.500703694858    2.392381752713
 H   -4.215939607023    1.227284495960    2.396429890576
 H   -4.551248652174   -1.316565987776    2.369743362236
RB    2.368257107604    1.581552751674   -3.800316279594
