16

 N   -3.656233908178   -0.865002851269    2.413918863137
 C   -2.424108175911   -1.495293131277    2.414873823445
 N   -2.153967239785   -2.816178606245    2.411409634498
 C   -0.825838071322   -3.034372498995    2.426977063161
 H   -0.512029788352   -4.081051231485    2.430356633852
 N    0.186511371719   -2.126391541854    2.440948333436
 C   -0.125705372188   -0.815570458605    2.436301929536
 N    0.881921582614    0.108928178700    2.394480092605
 H    1.813373120001   -0.221601930052    2.616938026738
 H    0.649184076587    1.068898933739    2.619290338045
 C   -1.491206213062   -0.438876604738    2.427530841821
 N   -2.114735524253    0.800089095892    2.437409050839
 C   -3.414661011410    0.492009707531    2.428954197681
 H   -4.224714540197    1.218590508633    2.433002335544
 H   -4.560023585348   -1.325259975103    2.406315807204
RB    2.382213875843    1.595380773357   -3.858485741198
