16

 N   -3.787857905788   -0.995412661178    2.962505537670
 C   -2.555732173521   -1.625702941186    2.963460497978
 N   -2.285591237395   -2.946588416154    2.959996309031
 C   -0.957462068932   -3.164782308904    2.975563737694
 H   -0.643653785962   -4.211461041394    2.978943308385
 N    0.054887374109   -2.256801351763    2.989535007969
 C   -0.257329369798   -0.945980268514    2.984888604069
 N    0.750297585004   -0.021481631209    2.943066767138
 H    1.681749122391   -0.352011739961    3.165524701271
 H    0.517560078977    0.938489123830    3.167877012578
 C   -1.622830210672   -0.569286414647    2.976117516354
 N   -2.246359521863    0.669679285983    2.985995725372
 C   -3.546285009020    0.361599897622    2.977540872214
 H   -4.356338537807    1.088180698724    2.981589010077
 H   -4.691647582958   -1.455669785012    2.954902481737
RB    2.591565399420    1.802801098598   -4.731027665258
