16

 N   -3.849282438007   -1.056270572468    3.218512652451
 C   -2.617156705740   -1.686560852476    3.219467612759
 N   -2.347015769614   -3.007446327444    3.216003423812
 C   -1.018886601151   -3.225640220194    3.231570852475
 H   -0.705078318181   -4.272318952684    3.234950423166
 N   -0.006537158110   -2.317659263053    3.245542122750
 C   -0.318753902017   -1.006838179804    3.240895718850
 N    0.688873052785   -0.082339542499    3.199073881919
 H    1.620324590172   -0.412869651251    3.421531816052
 H    0.456135546758    0.877631212540    3.423884127359
 C   -1.684254742891   -0.630144325937    3.232124631135
 N   -2.307784054082    0.608821374693    3.242002840153
 C   -3.607709541239    0.300741986332    3.233547986995
 H   -4.417763070026    1.027322787434    3.237596124858
 H   -4.753072115177   -1.516527696302    3.210909596518
RB    2.689262777090    1.899597250376   -5.138213896486
