16

 N   -3.937031769747   -1.143210445741    3.584237102140
 C   -2.704906037480   -1.773500725749    3.585192062448
 N   -2.434765101354   -3.094386200717    3.581727873501
 C   -1.106635932891   -3.312580093467    3.597295302164
 H   -0.792827649921   -4.359258825957    3.600674872855
 N   -0.094286489850   -2.404599136326    3.611266572439
 C   -0.406503233757   -1.093778053077    3.606620168539
 N    0.601123721045   -0.169279415772    3.564798331608
 H    1.532575258432   -0.499809524524    3.787256265741
 H    0.368386215018    0.790691339267    3.789608577048
 C   -1.772004074631   -0.717084199210    3.597849080824
 N   -2.395533385822    0.521881501420    3.607727289842
 C   -3.695458872979    0.213802113059    3.599272436684
 H   -4.505512401766    0.940382914161    3.603320574547
 H   -4.840821446917   -1.603467569575    3.576634046207
RB    2.828830459475    2.037877467203   -5.719908512525
