21

 H    3.762723627977   -3.153195510517   -0.713849242378
 H    2.472243627977   -3.958955510517   -1.662049242378
 H    2.232663627977   -3.674025510517    0.099300757622
 C    2.678863627977   -3.280405510517   -0.821499242378
 S    1.913403627977   -1.684565510517   -1.259789242378
 S    2.228303627977   -0.551745510517    0.468330757622
 C    3.869273627977    0.180004489483    0.157590757622
 H    4.630313627977   -0.609475510517    0.148840757622
 H    4.062133627977    0.864244489483    0.996780757622
 H    3.863293627977    0.735094489483   -0.787799242378
 K   -0.605246372023   -0.153045510517   -0.541499242378
 S   -1.850463301105    0.604135769625   -0.186377701874
 S   -1.780711855660    1.815835975689    1.515306162826
 C   -3.463523662335   -0.226333345746   -0.004520769524
 H   -4.270920457231    0.509450821915   -0.100768544620
 H   -3.528650821708   -0.950419425650   -0.829812128743
 H   -3.514693236404   -0.747066337395    0.958877574100
 C   -2.600371505396    3.339373908453    0.939272957078
 H   -3.658127800885    3.135159939519    0.734436675269
 H   -2.520779106516    4.060076585632    1.766255863037
 H   -2.092482215107    3.729113070685    0.049290150147
