21

 H    3.853230244180   -3.215340603678   -0.749421677042
 H    2.562750244180   -4.021100603678   -1.697621677042
 H    2.323170244180   -3.736170603678    0.063728322958
 C    2.769370244180   -3.342550603678   -0.857071677042
 S    2.003910244180   -1.746710603678   -1.295361677042
 S    2.318810244180   -0.613890603678    0.432758322958
 C    3.959780244180    0.117859396322    0.122018322958
 H    4.720820244180   -0.671620603678    0.113268322958
 H    4.152640244180    0.802099396322    0.961208322958
 H    3.953800244180    0.672949396322   -0.823371677042
 K   -0.514739755820   -0.215190603678   -0.577071677042
 S   -2.009000070719    0.693426932492   -0.150925828437
 S   -1.879443936096    1.887629002329    1.559602526569
 C   -3.631298254935   -0.111576130106    0.060812914113
 H   -4.428095679905    0.638513815247   -0.009971953209
 H   -3.727732664498   -0.826626066594   -0.769278658294
 H   -3.669055188649   -0.640472707282    1.020375505614
 C   -2.686199147382    3.430072993795    1.016613953619
 H   -3.751714230291    3.245562382688    0.834561569447
 H   -2.575323830693    4.141481722216    1.848029800760
 H   -2.192439303326    3.819651025846    0.118645292840
