21

 H    3.883699076972   -3.236016123093   -0.761060076213
 H    2.593219076972   -4.041776123093   -1.709260076213
 H    2.353639076972   -3.756846123093    0.052089923787
 C    2.799839076972   -3.363226123093   -0.868710076213
 S    2.034379076972   -1.767386123093   -1.307000076213
 S    2.349279076972   -0.634566123093    0.421119923787
 C    3.990249076972    0.097183876907    0.110379923787
 H    4.751289076972   -0.692296123093    0.101629923787
 H    4.183109076972    0.781423876907    0.949569923787
 H    3.984269076972    0.652273876907   -0.835010076213
 K   -0.484270923028   -0.235866123093   -0.588710076213
 S   -2.061545699866    0.723230165086   -0.138889458241
 S   -1.913618948589    1.911832590069    1.574047370857
 C   -3.686458853281   -0.073966941057    0.082127831166
 H   -4.479830116287    0.680438351439    0.019149631057
 H   -3.792511338504   -0.786123315963   -0.749277120502
 H   -3.720137203450   -0.605412001959    1.040433345276
 C   -2.716188335331    3.459984478395    1.041194541049
 H   -3.783916201086    3.281516119051    0.866220607265
 H   -2.595705008899    4.168421142094    1.873810471223
 H   -2.226810747512    3.849575768339    0.140835864887
