21

 H    3.914306522662   -3.256676396181   -0.772601373084
 H    2.623826522662   -4.062436396181   -1.720801373084
 H    2.384246522662   -3.777506396181    0.040548626916
 C    2.830446522662   -3.383886396181   -0.880251373084
 S    2.064986522662   -1.788046396181   -1.318541373084
 S    2.379886522662   -0.655226396181    0.409578626916
 C    4.020856522662    0.076523603819    0.098838626916
 H    4.781896522662   -0.712956396181    0.090088626916
 H    4.213716522662    0.760763603819    0.938028626916
 H    4.014876522662    0.631613603819   -0.846551373084
 K   -0.453663477338   -0.256526396181   -0.600251373084
 S   -2.113952716115    0.753048644007   -0.126755985745
 S   -1.948370005642    1.936169463089    1.588358623355
 C   -3.741280175726   -0.036653561363    0.103223122938
 H   -4.531282906358    0.721864076902    0.047741251721
 H   -3.856577111143   -0.745976572179   -0.729372522385
 H   -3.771057032980   -0.570566100288    1.060285441677
 C   -2.746817824628    3.489762943226    1.065240656802
 H   -3.816596621556    3.317097262955    0.897105245304
 H   -2.617100873768    4.195291099626    1.898938179160
 H   -2.261670681889    3.879394856584    0.162612957035
