21

 H    4.006898625148   -3.318586966925   -0.806705815414
 H    2.716418625148   -4.124346966925   -1.754905815414
 H    2.476838625148   -3.839416966925    0.006444184586
 C    2.923038625148   -3.445796966925   -0.914355815414
 S    2.157578625148   -1.849956966925   -1.352645815414
 S    2.472478625148   -0.717136966925    0.375474184586
 C    4.113448625148    0.014613033075    0.064734184586
 H    4.874488625148   -0.774866966925    0.055984184586
 H    4.306308625148    0.698853033075    0.903924184586
 H    4.107468625148    0.569703033075   -0.880655815414
 K   -0.361071374852   -0.318436966925   -0.634355815414
 S   -2.270403999445    0.842574329291   -0.089836119974
 S   -2.055782888938    2.009955330509    1.630620216531
 C   -3.903926539485    0.073650658454    0.165262143460
 H   -4.684182976194    0.843408850007    0.130566617646
 H   -4.044902178382   -0.627532621780   -0.670271160699
 H   -3.922962300646   -0.467208740492    1.118690847018
 C   -2.842274604814    3.578434153577    1.134506327848
 H   -3.917358765038    3.421861775103    0.985547384398
 H   -2.686914959934    4.275615452428    1.970837388419
 H   -2.368973607505    3.968322766437    0.225721106847
