21

 H    4.100527726132   -3.380427347978   -0.840144035565
 H    2.810047726132   -4.186187347978   -1.788344035565
 H    2.570467726132   -3.901257347978   -0.026994035565
 C    3.016667726132   -3.507637347978   -0.947794035565
 S    2.251207726132   -1.911797347978   -1.386084035565
 S    2.566107726132   -0.778977347978    0.342035964435
 C    4.207077726132   -0.047227347978    0.031295964435
 H    4.968117726132   -0.836707347978    0.022545964435
 H    4.399937726132    0.637012652022    0.870485964435
 H    4.201097726132    0.507862652022   -0.914094035565
 K   -0.267442273868   -0.380277347978   -0.667794035565
 S   -2.425818284278    0.932170204267   -0.052250032025
 S   -2.167385850945    2.084845037482    1.672094491316
 C   -4.064237060714    0.181762580138    0.225575335914
 H   -4.835297813242    0.961336490440    0.209407643236
 H   -4.228157748956   -0.511810623133   -0.612120459271
 H   -4.073795544098   -0.365420247200    1.175531719788
 C   -2.942559665962    3.666336939857    1.200063827762
 H   -4.021894685336    3.524113310074    1.068466019325
 H   -2.764294573961    4.355725087515    2.038284302602
 H   -2.479962595787    4.056634828960    0.285958226189
