21

 H    4.195060757144   -3.442231098708   -0.873035228063
 H    2.904580757144   -4.247991098708   -1.821235228063
 H    2.665000757144   -3.963061098708   -0.059885228063
 C    3.111200757144   -3.569441098708   -0.980685228063
 S    2.345740757144   -1.973601098708   -1.418975228063
 S    2.660640757144   -0.840781098708    0.309144771937
 C    4.301610757144   -0.109031098708   -0.001595228063
 H    5.062650757144   -0.898511098708   -0.010345228063
 H    4.494470757144    0.575208901292    0.837594771937
 H    4.295630757144    0.446058901292   -0.946985228063
 K   -0.172909242856   -0.442081098708   -0.700685228063
 S   -2.580328639082    1.021802709566   -0.014116916422
 S   -2.282574363923    2.160756651238    1.713001185873
 C   -4.222624729605    0.287975120934    0.284337846676
 H   -4.985036612292    1.076175285211    0.284764662746
 H   -4.407142034373   -0.398494073432   -0.554924588459
 H   -4.223773417772   -0.264977960580    1.230994654901
 C   -3.047074718491    3.753696794786    1.262551482756
 H   -4.129828907356    3.624327946675    1.146721021593
 H   -2.848254573240    4.435818219060    2.102092391818
 H   -2.594182300888    4.144507771852    0.343817146464
