21

 H    4.226752482593   -3.462828455514   -0.883894304439
 H    2.936272482593   -4.268588455514   -1.832094304439
 H    2.696692482593   -3.983658455514   -0.070744304439
 C    3.142892482593   -3.590038455514   -0.991544304439
 S    2.377432482593   -1.994198455514   -1.429834304439
 S    2.692332482593   -0.861378455514    0.298285695561
 C    4.333302482593   -0.129628455514   -0.012454304439
 H    5.094342482593   -0.919108455514   -0.021204304439
 H    4.526162482593    0.554611544486    0.826735695561
 H    4.327322482593    0.425461544486   -0.957844304439
 K   -0.141217517407   -0.462678455514   -0.711544304439
 S   -2.631651375572    1.051684104769   -0.001301223430
 S   -2.321678025116    2.186273164993    1.726539861660
 C   -4.275052019917    0.323001194368    0.303608866033
 H   -5.034699605560    1.113846315437    0.309185613145
 H   -4.465970171610   -0.361207370406   -0.536067812721
 H   -4.273606083762   -0.231763352908    1.249204841466
 C   -3.082761708361    3.782725927745    1.282789671238
 H   -4.166501570538    3.657347063657    1.171894767527
 H   -2.877554799132    4.462536469895    2.122668101004
 H   -2.632903891805    4.173724611300    0.362645379977
