21

 H    4.258528092267   -3.483425041975   -0.894706225783
 H    2.968048092267   -4.289185041975   -1.842906225783
 H    2.728468092267   -4.004255041975   -0.081556225783
 C    3.174668092267   -3.610635041975   -1.002356225783
 S    2.409208092267   -2.014795041975   -1.440646225783
 S    2.724108092267   -0.881975041975    0.287473774217
 C    4.365078092267   -0.150225041975   -0.023266225783
 H    5.126118092267   -0.939705041975   -0.032016225783
 H    4.557938092267    0.534014958025    0.815923774217
 H    4.359098092267    0.404864958025   -0.968656225783
 K   -0.109441907733   -0.483275041975   -0.722356225783
 S   -2.682890227836    1.081566270317    0.011561624592
 S   -2.361107265293    2.211890904812    1.740038576874
 C   -4.327312996951    0.357852248298    0.322731024033
 H   -5.084254188486    1.151237569445    0.333282078306
 H   -4.524417749505   -0.324147401653   -0.517313153131
 H   -4.323367840488   -0.198671387375    1.267285639223
 C   -3.118843517627    3.811718263298    1.302760378197
 H   -4.203501241653    3.690193605282    1.196651908680
 H   -2.907464147119    4.489271462525    2.142932056809
 H   -2.671927181655    4.202911161940    0.381266239804
