21

 H    4.386400312570   -3.565814332326   -0.937534929193
 H    3.095920312570   -4.371574332326   -1.885734929193
 H    2.856340312570   -4.086644332326   -0.124384929193
 C    3.302540312570   -3.693024332326   -1.045184929193
 S    2.537080312570   -2.097184332326   -1.483474929193
 S    2.851980312570   -0.964364332326    0.244645070807
 C    4.492950312570   -0.232614332326   -0.066094929193
 H    5.253990312570   -1.022094332326   -0.074844929193
 H    4.685810312570    0.451625667674    0.773095070807
 H    4.486970312570    0.322475667674   -1.011484929193
 K    0.018430312570   -0.565664332326   -0.765184929193
 S   -2.887075855289    1.201091988004    0.063431998650
 S   -2.521784705276    2.315315140591    1.793715146248
 C   -4.534876885746    0.495655090948    0.397834709011
 H   -5.281551128060    1.298261315823    0.426685768881
 H   -4.754776011700   -0.178001571744   -0.443283059685
 H   -4.521796410681   -0.067420272989    1.338415688034
 C   -3.266802578331    3.927401677336    1.380254876119
 H   -4.354545149990    3.820058747319    1.291919032450
 H   -3.032685435008    4.596434671815    2.221225768065
 H   -2.830796145668    4.319419260292    0.453897413943
