21

 H    4.515358357637   -3.648227009368   -0.979799034859
 H    3.224878357637   -4.453987009368   -1.927999034859
 H    2.985298357637   -4.169057009368   -0.166649034859
 C    3.431498357637   -3.775437009368   -1.087449034859
 S    2.666038357637   -2.179597009368   -1.525739034859
 S    2.980938357637   -1.046777009368    0.202380965141
 C    4.621908357637   -0.315027009368   -0.108359034859
 H    5.382948357637   -1.104507009368   -0.117109034859
 H    4.814768357637    0.369212990632    0.730830965141
 H    4.615928357637    0.240062990632   -1.053749034859
 K    0.147388357637   -0.648077009368   -0.807449034859
 S   -3.090175657978    1.320594319000    0.115866970452
 S   -2.686585715395    2.420130808158    1.847035736389
 C   -4.740441832189    0.631208184138    0.470948560672
 H   -5.477689477935    1.441750682681    0.515874353912
 H   -4.980408847906   -0.034835200915   -0.370746197655
 H   -4.719414565620    0.062272317330    1.407851637793
 C   -3.419901220987    4.042781169701    1.454507773631
 H   -4.509969747822    3.947898721646    1.381998767614
 H   -3.165771931033    4.704046461037    2.295813035746
 H   -2.993594382708    4.435668032566    0.524013316353
