21

 H    4.677834610734   -3.751299629682   -1.032004410969
 H    3.387354610734   -4.557059629682   -1.980204410969
 H    3.147774610734   -4.272129629682   -0.218854410969
 C    3.593974610734   -3.878509629682   -1.139654410969
 S    2.828514610734   -2.282669629682   -1.577944410969
 S    3.143414610734   -1.149849629682    0.150175589031
 C    4.784384610734   -0.418099629682   -0.160564410969
 H    5.545424610734   -1.207579629682   -0.169314410969
 H    4.977244610734    0.266140370318    0.678625589031
 H    4.778404610734    0.136990370318   -1.105954410969
 K    0.309864610734   -0.751149629682   -0.859654410969
 S   -3.342771714574    1.469915458733    0.182035441177
 S   -2.897363408047    2.552860076814    1.913408602441
 C   -4.995178849681    0.798013995666    0.559942451138
 H   -5.721712477003    1.617026569796    0.622383237385
 H   -5.257060947902    0.140575041266   -0.281983800661
 H   -4.965577061485    0.222578105069    1.492634689955
 C   -3.617352371630    4.186798706260    1.543699966323
 H   -4.709538830448    4.105496692705    1.488669521403
 H   -3.341375274462    4.839292653374    2.384970622187
 H   -3.201740415647    4.580789935751    0.608844279317
