21

 H    4.710479041818   -3.771923150037   -1.042375855496
 H    3.419999041818   -4.577683150037   -1.990575855496
 H    3.180419041818   -4.292753150037   -0.229225855496
 C    3.626619041818   -3.899133150037   -1.150025855496
 S    2.861159041818   -2.303293150037   -1.588315855496
 S    3.176059041818   -1.170473150037    0.139804144504
 C    4.817029041818   -0.438723150037   -0.170935855496
 H    5.578069041818   -1.228203150037   -0.179685855496
 H    5.009889041818    0.245516849963    0.668254144504
 H    4.811049041818    0.116366849963   -1.116325855496
 K    0.342509041818   -0.771773150037   -0.870025855496
 S   -3.393141745429    1.499770690387    0.195338766016
 S   -2.940069733119    2.579611163082    1.926662229177
 C   -5.045878296429    0.831068799235    0.577456939045
 H   -5.770400323661    1.651611268390    0.643103327885
 H   -5.311776933429    0.175240023376   -0.264466191174
 H   -5.014716847986    0.254430165331    1.509355212689
 C   -3.657553736396    4.215590345776    1.561131318127
 H   -4.750080128120    4.136774233314    1.509326570251
 H   -3.377573161953    4.866443720140    2.402349951190
 H   -3.243913619413    4.609801700885    0.625494207103
