21

 H    4.775902400114   -3.813179846809   -1.063058089146
 H    3.485422400114   -4.618939846809   -2.011258089146
 H    3.245842400114   -4.334009846809   -0.249908089146
 C    3.692042400114   -3.940389846809   -1.170708089146
 S    2.926582400114   -2.344549846809   -1.608998089146
 S    3.241482400114   -1.211729846809    0.119121910854
 C    4.882452400114   -0.479979846809   -0.191618089146
 H    5.643492400114   -1.269459846809   -0.200368089146
 H    5.075312400114    0.204260153191    0.647571910854
 H    4.876472400114    0.075110153191   -1.137008089146
 K    0.407932400114   -0.813029846809   -0.890708089146
 S   -3.493747311010    1.559471497634    0.222006071100
 S   -3.025974746365    2.633302124663    1.953158069372
 C   -5.147060768377    0.896902933631    0.612226693422
 H   -5.867682092238    1.720360534048    0.684018391509
 H   -5.420664246244    0.244191911372   -0.229650663395
 H   -5.112917812238    0.317947113932    1.542582517708
 C   -3.738598940474    4.273170911343    1.595637232857
 H   -4.831735285923    4.199120755174    1.550039724914
 H   -3.450939219678    4.920848399857    2.436716171782
 H   -3.328751587684    4.667820006643    0.658516759604
