21

 H    4.841494249376   -3.854449728363   -1.083665829972
 H    3.551014249376   -4.660209728363   -2.031865829972
 H    3.311434249376   -4.375279728363   -0.270515829972
 C    3.757634249376   -3.981659728363   -1.191315829972
 S    2.992174249376   -2.385819728363   -1.629605829972
 S    3.307074249376   -1.252999728363    0.098514170028
 C    4.948044249376   -0.521249728363   -0.212225829972
 H    5.709084249376   -1.310729728363   -0.220975829972
 H    5.140904249376    0.162990271637    0.626964170028
 H    4.942064249376    0.033840271637   -1.157615829972
 K    0.473524249376   -0.854299728363   -0.911315829972
 S   -3.594184385626    1.619159120099    0.248747869008
 S   -3.112493608214    2.687232239303    1.979644872267
 C   -5.247977135699    0.962392481692    0.646669653891
 H   -5.964854177893    1.788586319174    0.724275125870
 H   -5.528875779733    0.312668709034   -0.195115946261
 H   -5.211023803887    0.381230527385    1.575541430044
 C   -3.820449952052    4.330753700831    1.629703378849
 H   -4.914112546048    4.261212810373    1.590006739824
 H   -3.525520170918    4.975389108142    2.470601494818
 H   -3.414206144405    4.725836097155    0.691197432537
