21

 H    4.874349572252   -3.875089688274   -1.093943948789
 H    3.583869572252   -4.680849688274   -2.042143948789
 H    3.344289572252   -4.395919688274   -0.280793948789
 C    3.790489572252   -4.002299688274   -1.201593948789
 S    3.025029572252   -2.406459688274   -1.639883948789
 S    3.339929572252   -1.273639688274    0.088236051211
 C    4.980899572252   -0.541889688274   -0.222503948789
 H    5.741939572252   -1.331369688274   -0.231253948789
 H    5.173759572252    0.142350311726    0.616686051211
 H    4.974919572252    0.013200311726   -1.167893948789
 K    0.506379572252   -0.874939688274   -0.921593948789
 S   -3.644343524690    1.648997912197    0.262144519557
 S   -3.155968429202    2.714282507939    1.992886881979
 C   -5.298343221029    0.995015953768    0.663775229239
 H   -6.013404276374    1.822515638089    0.744171246408
 H   -5.582745545706    0.346739128471   -0.177949488885
 H   -5.260044514354    0.412790228355    1.591926055417
 C   -3.861659851375    4.359547797387    1.646583875766
 H   -4.955557383484    4.292171452370    1.609729493703
 H   -3.563238717289    5.002709995949    2.487378285043
 H   -3.457151055955    4.754844838153    0.707419126434
