21

 H    4.907242612081   -3.895733015485   -1.104205963155
 H    3.616762612081   -4.701493015485   -2.052405963155
 H    3.377182612081   -4.416563015485   -0.291055963155
 C    3.823382612081   -4.022943015485   -1.211855963155
 S    3.057922612081   -2.427103015485   -1.650145963155
 S    3.372822612081   -1.294283015485    0.077974036845
 C    5.013792612081   -0.562533015485   -0.232765963155
 H    5.774832612081   -1.352013015485   -0.241515963155
 H    5.206652612081    0.121706984515    0.606424036845
 H    5.007812612081   -0.007443015485   -1.178155963155
 K    0.539272612081   -0.895583015485   -0.931855963155
 S   -3.694464946799    1.678833336996    0.275557274559
 S   -3.199579528764    2.741387322747    2.006128879342
 C   -5.348651656696    1.027562486154    0.680806866841
 H   -6.061932872872    1.856328861389    0.763919813669
 H   -5.636466539006    0.380702643005   -0.160848028257
 H   -5.309045304696    0.444298013614    1.608250360728
 C   -3.903050492330    4.388344540970    1.663368682029
 H   -4.997165707075    4.323075733464    1.629287782234
 H   -3.601228976698    5.030064224579    2.504051527084
 H   -3.500234290744    4.783854738115    0.723566397453
