21

 H    4.973136574114   -3.937029789166   -1.124684597596
 H    3.682656574114   -4.742789789166   -2.072884597596
 H    3.443076574114   -4.457859789166   -0.311534597596
 C    3.889276574114   -4.064239789166   -1.232334597596
 S    3.123816574114   -2.468399789166   -1.670624597596
 S    3.438716574114   -1.335579789166    0.057495402404
 C    5.079686574114   -0.603829789166   -0.253244597596
 H    5.840726574114   -1.393309789166   -0.261994597596
 H    5.272546574114    0.080410210834    0.585945402404
 H    5.073706574114   -0.048739789166   -1.198634597596
 K    0.605166574114   -0.936879789166   -0.952334597596
 S   -3.794599908644    1.738494067334    0.302428178852
 S   -3.287190199551    2.795754157765    2.032615196836
 C   -5.449105881539    1.092435709589    0.714657736796
 H   -6.158932141257    1.923624511923    0.802994682010
 H   -5.743485922647    0.448323239194   -0.126833524288
 H   -5.406991478653    0.507165512777    1.640726155539
 C   -3.986349174977    4.445948120033    1.696667816916
 H   -5.080852137021    4.384731857752    1.667936937909
 H   -3.677986395822    5.084871437202    2.537106640870
 H   -3.586796759045    4.841879793832    0.755650538113
