21

 H    5.006135007697   -3.957683228085   -1.134902574896
 H    3.715655007697   -4.763443228085   -2.083102574896
 H    3.476075007697   -4.478513228085   -0.321752574896
 C    3.922275007697   -4.084893228085   -1.242552574896
 S    3.156815007697   -2.489053228085   -1.680842574896
 S    3.471715007697   -1.356233228085    0.047277425104
 C    5.112685007697   -0.624483228085   -0.263462574896
 H    5.873725007697   -1.413963228085   -0.272212574896
 H    5.305545007697    0.059756771915    0.575727425104
 H    5.106705007697   -0.069393228085   -1.208852574896
 K    0.638165007697   -0.957533228085   -0.962552574896
 S   -3.844615937000    1.768319380424    0.315884970919
 S   -3.331180194509    2.823013100920    2.045860555481
 C   -5.499256464532    1.124767578633    0.731481442823
 H   -6.207405806337    1.957115159946    0.822330623247
 H   -5.796795420269    0.481987088046   -0.109917295196
 H   -5.455938868009    0.538528838716    1.656881501204
 C   -4.028245477080    4.474755890055    1.713189879774
 H   -5.122920407213    4.415488630563    1.687039977494
 H   -3.716735502255    5.112323713162    2.553497461629
 H   -3.630267020095    4.870895727182    0.771593405897
