21

 H    5.039166174919   -3.978340020703   -1.145107167591
 H    3.748686174919   -4.784100020703   -2.093307167591
 H    3.509106174919   -4.499170020703   -0.331957167591
 C    3.955306174919   -4.105550020703   -1.252757167591
 S    3.189846174919   -2.509710020703   -1.691047167591
 S    3.504746174919   -1.376890020703    0.037072832409
 C    5.145716174919   -0.645140020703   -0.273667167591
 H    5.906756174919   -1.434620020703   -0.282417167591
 H    5.338576174919    0.039099979297    0.565522832409
 H    5.139736174919   -0.090050020703   -1.219057167591
 K    0.671196174919   -0.978190020703   -0.972757167591
 S   -3.894599231716    1.798141339816    0.329355147591
 S   -3.375287287999    2.850320432326    2.059107988692
 C   -5.549359004211    1.157032877332    0.748240166497
 H   -6.255863974282    1.990506177967    0.841538314368
 H   -5.849978396028    0.515557580866   -0.093059691395
 H   -5.504870358517    0.569847483151    1.672984247669
 C   -4.070299014310    4.503568186330    1.729631749381
 H   -5.165132473969    4.446200923249    1.706002935670
 H   -3.755720170223    5.139807922726    2.569802669066
 H   -3.673857638659    4.899914382633    0.787473869433
