21

 H    5.105322310158   -4.019663595878   -1.165478519527
 H    3.814842310158   -4.825423595878   -2.113678519527
 H    3.575262310158   -4.540493595878   -0.352328519527
 C    4.021462310158   -4.146873595878   -1.273128519527
 S    3.256002310158   -2.551033595878   -1.711418519527
 S    3.570902310158   -1.418213595878    0.016701480473
 C    5.211872310158   -0.686463595878   -0.294038519527
 H    5.972912310158   -1.475943595878   -0.302788519527
 H    5.404732310158   -0.002223595878    0.545151480473
 H    5.205892310158   -0.131373595878   -1.239428519527
 K    0.737352310158   -1.019513595878   -0.993128519527
 S   -3.994472020355    1.857775268660    0.356333334388
 S   -3.463835996185    2.905074678782    2.085610635549
 C   -5.649428162948    1.221372891590    0.781570685704
 H   -6.352738687010    2.057003708173    0.879586016752
 H   -5.955984073024    0.582430540646   -0.059514429945
 H   -5.602689003136    0.632357063692    1.705038794426
 C   -4.154856987321    4.561207711286    1.762288201193
 H   -5.249970349792    4.507500422664    1.743529774162
 H   -3.834364304539    5.194870489030    2.602171496648
 H   -3.761384042589    4.957961004693    0.819057896159
