21

 H    5.171596645394   -4.061000334416   -1.185802986022
 H    3.881116645394   -4.866760334416   -2.134002986022
 H    3.641536645394   -4.581830334416   -0.372652986022
 C    4.087736645394   -4.188210334416   -1.293452986022
 S    3.322276645394   -2.592370334416   -1.731742986022
 S    3.637176645394   -1.459550334416   -0.003622986022
 C    5.278146645394   -0.727800334416   -0.314362986022
 H    6.039186645394   -1.517280334416   -0.323112986022
 H    5.471006645394   -0.043560334416    0.524827013978
 H    5.272166645394   -0.172710334416   -1.259752986022
 K    0.803626645394   -1.060850334416   -1.013452986022
 S   -4.094226608997    1.917396034140    0.383358406627
 S   -3.552804675015    2.960006215093    2.112125866084
 C   -5.749328697444    1.285473020344    0.814664569177
 H   -6.449565166778    2.123144229287    0.917170143282
 H   -6.061539219858    0.648964988914   -0.026186274445
 H   -5.700453630526    0.694706216459    1.736902799603
 C   -4.239983643589    4.618869023745    1.794662048748
 H   -5.335332136352    4.568645895730    1.780557265377
 H   -3.913858428441    5.250055687634    2.634241565515
 H   -3.849345810465    5.016021647469    0.850421920814
