21

 H    5.337750987075   -4.164398166111   -1.236433545353
 H    4.047270987075   -4.970158166111   -2.184633545353
 H    3.807690987075   -4.685228166111   -0.423283545353
 C    4.253890987075   -4.291608166111   -1.344083545353
 S    3.488430987075   -2.695768166111   -1.782373545353
 S    3.803330987075   -1.562948166111   -0.054253545353
 C    5.444300987075   -0.831198166111   -0.364993545353
 H    6.205340987075   -1.620678166111   -0.373743545353
 H    5.637160987075   -0.146958166111    0.474196454647
 H    5.438320987075   -0.276108166111   -1.310383545353
 K    0.969780987075   -1.164248166111   -1.064083545353
 S   -4.343144577010    2.066391962493    0.451101694131
 S   -3.776880614230    3.098047038014    2.178482242391
 C   -5.998429241925    1.444774319891    0.896454148825
 H   -6.691468139538    2.287090425479    1.009291308758
 H   -6.323664262639    0.813954280698    0.056254002994
 H   -5.944663367885    0.849946530638    1.815805373505
 C   -4.455057648877    4.763128354951    1.874501740112
 H   -5.550830083944    4.720922910912    1.871170202947
 H   -4.115960577089    5.388531241125    2.713270141681
 H   -4.070978600653    5.161243990147    0.927979279666
