21

 H    5.404382804022   -4.205778936068   -1.256622005982
 H    4.113902804022   -5.011538936068   -2.204822005982
 H    3.874322804022   -4.726608936068   -0.443472005982
 C    4.320522804022   -4.332988936068   -1.364272005982
 S    3.555062804022   -2.737148936068   -1.802562005982
 S    3.869962804022   -1.604328936068   -0.074442005982
 C    5.510932804022   -0.872578936068   -0.385182005982
 H    6.271972804022   -1.662058936068   -0.393932005982
 H    5.703792804022   -0.188338936068    0.454007994018
 H    5.504952804022   -0.317488936068   -1.330572005982
 K    1.036412804022   -1.205628936068   -1.084272005982
 S   -4.442541683940    2.125968696555    0.478262772236
 S   -3.867107952276    3.153525030409    2.205055935912
 C   -6.097839259984    1.508150937633    0.928824394997
 H   -6.788179704465    2.352162239514    1.045471525307
 H   -6.427882221788    0.879459306830    0.088903861659
 H   -6.042278221873    0.911814157311    1.847090673306
 C   -4.541907877192    4.820877372189    1.906048815939
 H   -5.637795073972    4.781628954446    1.906713449641
 H   -4.198022929652    5.444116661836    2.744478274091
 H   -4.160260108917    5.219363831081    0.958699321059
