21

 H    5.504494538748   -4.267872279246   -1.286845026379
 H    4.214014538748   -5.073632279246   -2.235045026379
 H    3.974434538748   -4.788702279246   -0.473695026379
 C    4.420634538748   -4.395082279246   -1.394495026379
 S    3.655174538748   -2.799242279246   -1.832785026379
 S    3.970074538748   -1.666422279246   -0.104665026379
 C    5.611044538748   -0.934672279246   -0.415405026379
 H    6.372084538748   -1.724152279246   -0.424155026379
 H    5.803904538748   -0.250432279246    0.423784973621
 H    5.605064538748   -0.379582279246   -1.360795026379
 K    1.136524538748   -1.267722279246   -1.114495026379
 S   -4.591473335031    2.215311609404    0.519064059940
 S   -4.003021010116    3.236997560549    2.244952905560
 C   -6.246738408214    1.602884862851    0.977044018024
 H   -6.933208906448    2.449284837965    1.099096863879
 H   -6.583607623663    0.977241903769    0.137557243242
 H   -6.188638189058    1.004396404775    1.893751971782
 C   -4.672975700717    4.907551405208    1.953003264803
 H   -5.768986897410    4.872498845300    1.959359589791
 H   -4.322293578500    5.527692222708    2.790914621229
 H   -4.294789284631    5.306578659030    1.004493998747
