21

 H    5.671742980752   -4.371417549830   -1.337076732007
 H    4.381262980752   -5.177177549830   -2.285276732007
 H    4.141682980752   -4.892247549830   -0.523926732007
 C    4.587882980752   -4.498627549830   -1.444726732007
 S    3.822422980752   -2.902787549830   -1.883016732007
 S    4.137322980752   -1.769967549830   -0.154896732007
 C    5.778292980752   -1.038217549830   -0.465636732007
 H    6.539332980752   -1.827697549830   -0.474386732007
 H    5.971152980752   -0.353977549830    0.373553267993
 H    5.772312980752   -0.483127549830   -1.411026732007
 K    1.303772980752   -1.371267549830   -1.164726732007
 S   -4.839297202721    2.364160098868    0.587206201147
 S   -4.230914654063    3.376741686202    2.311549505822
 C   -6.494396165797    1.759977790581    1.056594936823
 H   -7.174853171690    2.609993288232    1.186915606267
 H   -6.841716357788    1.139063644235    0.217856400268
 H   -6.432430371023    1.158173990668    1.970876058300
 C   -4.893335818275    5.052144680274    2.030396457182
 H   -5.989447739073    5.023510267512    2.045507896191
 H   -4.532248590769    5.667480805189    2.867430203877
 H   -4.520470356634    5.452032628989    1.080144638774
