21

 H    5.805858274885   -4.454301437335   -1.377153585629
 H    4.515378274885   -5.260061437335   -2.325353585629
 H    4.275798274885   -4.975131437335   -0.564003585629
 C    4.721998274885   -4.581511437335   -1.484803585629
 S    3.956538274885   -2.985671437335   -1.923093585629
 S    4.271438274885   -1.852851437335   -0.194973585629
 C    5.912408274885   -1.121101437335   -0.505713585629
 H    6.673448274885   -1.910581437335   -0.514463585629
 H    6.105268274885   -0.436861437335    0.333476414371
 H    5.906428274885   -0.566011437335   -1.451103585629
 K    1.437888274885   -1.454151437335   -1.204803585629
 S   -5.037239756343    2.483191219400    0.641828424993
 S   -4.414320437376    3.489041974933    2.364920531803
 C   -6.692128081672    1.885015585019    1.119578532814
 H   -7.368130521975    2.737636416042    1.255923606839
 H   -7.047071527710    1.267597918853    0.281450498907
 H   -6.627359464908    1.280777227784    2.032057889472
 C   -5.071157614308    5.167941831253    2.091636387460
 H   -6.167274473253    5.143984622957    2.113165711842
 H   -4.702481631871    5.779726407246    2.927965077719
 H   -4.702190051589    5.568482773055    1.140138918204
