21

 H    6.007489290761   -4.578700481754   -1.437117639597
 H    4.717009290761   -5.384460481754   -2.385317639597
 H    4.477429290761   -5.099530481754   -0.623967639597
 C    4.923629290761   -4.705910481754   -1.544767639597
 S    4.158169290761   -3.110070481754   -1.983057639597
 S    4.473069290761   -1.977250481754   -0.254937639597
 C    6.114039290761   -1.245500481754   -0.565677639597
 H    6.875079290761   -2.034980481754   -0.574427639597
 H    6.306899290761   -0.561260481754    0.273512360403
 H    6.108059290761   -0.690410481754   -1.511067639597
 K    1.639519290761   -1.578550481754   -1.264767639597
 S   -5.333695512100    2.661664687038    0.723912987226
 S   -4.690996228481    3.658233471008    2.445133170280
 C   -6.988174865173    2.071653107656    1.213094988992
 H   -7.658022475775    2.927775534912    1.357629165297
 H   -7.353491824757    1.459057817633    0.375886200648
 H   -6.919615278030    1.464079654767    2.123079398065
 C   -5.340113435024    5.341836721174    2.182547991148
 H   -6.436143303057    5.324238129601    2.212853866066
 H   -4.961112305539    5.948724368254    3.017828514846
 H   -4.976472773240    5.743300663826    1.229390231778
