21

 H    6.074809093815   -4.620185076058   -1.457070550047
 H    4.784329093815   -5.425945076058   -2.405270550047
 H    4.544749093815   -5.141015076058   -0.643920550047
 C    4.990949093815   -4.747395076058   -1.564720550047
 S    4.225489093815   -3.151555076058   -2.003010550047
 S    4.540389093815   -2.018735076058   -0.274890550047
 C    6.181359093815   -1.286985076058   -0.585630550047
 H    6.942399093815   -2.076465076058   -0.594380550047
 H    6.374219093815   -0.602745076058    0.253559449953
 H    6.175379093815   -0.731895076058   -1.531020550047
 K    1.706839093815   -1.620035076058   -1.284720550047
 S   -5.432404632924    2.721137596753    0.751309615510
 S   -4.783593936174    3.714809551164    2.471911648433
 C   -7.086728896963    2.133646319404    1.244036571188
 H   -7.754652881581    2.990840434769    1.391099004719
 H   -7.455251116168    1.522556205167    0.407132591132
 H   -7.017003364406    1.525037156093    2.153239947140
 C   -5.430297278307    5.399853157381    2.212630217319
 H   -6.526278266655    5.384217875494    2.245658072835
 H   -5.048106167347    6.005212682968    3.047566038255
 H   -5.068307889348    5.801610375710    1.258967613354
