21

 H    6.142178961227   -4.661678284808   -1.477007773663
 H    4.851698961227   -5.467438284808   -2.425207773663
 H    4.612118961227   -5.182508284808   -0.663857773663
 C    5.058318961227   -4.788888284808   -1.584657773663
 S    4.292858961227   -3.193048284808   -2.022947773663
 S    4.607758961227   -2.060228284808   -0.294827773663
 C    6.248728961227   -1.328478284808   -0.605567773663
 H    7.009768961227   -2.117958284808   -0.614317773663
 H    6.441588961227   -0.644238284808    0.233622226337
 H    6.242748961227   -0.773388284808   -1.550957773663
 K    1.774208961227   -1.661528284808   -1.304657773663
 S   -5.531063689390    2.780601892022    0.778721930628
 S   -4.876361250233    3.771468114575    2.498710149792
 C   -7.185225524897    2.195539361905    1.274872192347
 H   -7.851285151597    3.053762059372    1.424371139607
 H   -7.556837863114    1.585907156601    0.438271409452
 H   -7.114378361066    1.585929348801    2.183318037569
 C   -5.520724624852    5.457894527508    2.242612857125
 H   -6.616648600193    5.444151395984    2.278269479352
 H   -5.135458274161    6.061774063164    3.077206992643
 H   -5.160329591588    5.859938119282    1.288467211685
