21

 H    6.209596369538   -4.703179816186   -1.496930296591
 H    4.919116369538   -5.508939816186   -2.445130296591
 H    4.679536369538   -5.224009816186   -0.683780296591
 C    5.125736369538   -4.830389816186   -1.604580296591
 S    4.360276369538   -3.234549816186   -2.042870296591
 S    4.675176369538   -2.101729816186   -0.314750296591
 C    6.316146369538   -1.369979816186   -0.625490296591
 H    7.077186369538   -2.159459816186   -0.634240296591
 H    6.509006369538   -0.685739816186    0.213699703409
 H    6.310166369538   -0.814889816186   -1.570880296591
 K    1.841626369538   -1.703029816186   -1.324580296591
 S   -5.629675204957    2.840057864663    0.806148946434
 S   -4.969289234065    3.828205350020    2.525528353526
 C   -7.283668299161    2.257337351389    1.305606924779
 H   -7.947920236378    3.116548002341    1.457455471677
 H   -7.658261619070    1.649117913246    0.469307346072
 H   -7.211741386461    1.646759648493    2.213317743463
 C   -5.611383324450    5.515960310635    2.272501872476
 H   -6.707243070851    5.504041911862    2.310698679797
 H   -5.223150485800    6.118405815739    3.106757649785
 H   -5.252528577590    5.918283552267    1.317893668919
