21

 H    6.243322158208   -4.723933614198   -1.506886332070
 H    4.952842158208   -5.529693614198   -2.455086332070
 H    4.713262158208   -5.244763614198   -0.693736332070
 C    5.159462158208   -4.851143614198   -1.614536332070
 S    4.394002158208   -3.255303614198   -2.052826332070
 S    4.708902158208   -2.122483614198   -0.324706332070
 C    6.349872158208   -1.390733614198   -0.635446332070
 H    7.110912158208   -2.180213614198   -0.644196332070
 H    6.542732158208   -0.706493614198    0.203743667930
 H    6.343892158208   -0.835643614198   -1.580836332070
 K    1.875352158208   -1.723783614198   -1.334536332070
 S   -5.678963878225    2.869782818660    0.819867680321
 S   -5.015810852098    3.856602340532    2.538944736212
 C   -7.332870524463    2.288202207036    1.320937956943
 H   -7.996239094483    3.147892322966    1.473930129559
 H   -7.708915173291    1.680672855168    0.484788129276
 H   -7.260418730686    1.677152592225    2.228289403858
 C   -5.656795850278    5.545002189664    2.287413009265
 H   -6.752621036833    5.533971974899    2.326848056787
 H   -5.267118789044    6.146747269592    3.121500937683
 H   -5.298691809906    5.947462790713    1.332580823344
