21

 H    6.412110991792   -4.827731567416   -1.556618402718
 H    5.121630991792   -5.633491567416   -2.504818402718
 H    4.882050991792   -5.348561567416   -0.743468402718
 C    5.328250991792   -4.954941567416   -1.664268402718
 S    4.562790991792   -3.359101567416   -2.102558402718
 S    4.877690991792   -2.226281567416   -0.374438402718
 C    6.518660991792   -1.494531567416   -0.685178402718
 H    7.279700991792   -2.284011567416   -0.693928402718
 H    6.711520991792   -0.810291567416    0.154011597282
 H    6.512680991792   -0.939441567416   -1.630568402718
 K    2.044140991792   -1.827581567416   -1.384268402718
 S   -5.925247354335    3.018378625489    0.888509456508
 S   -5.248956661505    3.998854248858    2.606097614266
 C   -7.578705014778    2.442207260995    1.397251973170
 H   -8.237849984785    3.304160139600    1.555671364591
 H   -7.961640619817    1.837974761433    0.561841035686
 H   -7.503768322194    1.828909996611    2.302883520767
 C   -5.884637412069    5.690298716197    2.361660249340
 H   -6.980268995982    5.683483739951    2.406988127425
 H   -5.488103583253    6.288697975080    3.194923278145
 H   -5.530104913892    6.093422345582    1.405775533714
