14

 P   -0.098961290743    0.126445072168   -0.065255098179
 O   -0.685961290743    1.176445072168    0.889744901821
 O   -0.364961290743    0.174445072168   -1.577255098179
 O    1.564038709257   -0.047554927832    0.221744901821
 O   -0.413961290743   -1.431554927832    0.526744901821
 C    2.301038709257    1.117445072168   -0.155255098179
 H    1.970038709257    2.000445072168    0.420744901821
 H    2.186038709257    1.328445072168   -1.233255098179
 H    3.361038709257    0.915445072168    0.064744901821
 C   -1.804961290743   -1.754554927832    0.476744901821
 H   -2.182961290743   -1.727554927832   -0.561255098179
 H   -2.397961290743   -1.055554927832    1.092744901821
 H   -1.914961290743   -2.774554927832    0.876744901821
LI   -0.784338575174    1.012443695245   -0.495678631332
