14

 P   -0.095925929021    0.122521209550   -0.063348861795
 O   -0.682925929021    1.172521209550    0.891651138205
 O   -0.361925929021    0.170521209550   -1.575348861795
 O    1.567074070979   -0.051478790450    0.223651138205
 O   -0.410925929021   -1.435478790450    0.528651138205
 C    2.304074070979    1.113521209550   -0.153348861795
 H    1.973074070979    1.996521209550    0.422651138205
 H    2.189074070979    1.324521209550   -1.231348861795
 H    3.364074070979    0.911521209550    0.066651138205
 C   -1.801925929021   -1.758478790450    0.478651138205
 H   -2.179925929021   -1.731478790450   -0.559348861795
 H   -2.394925929021   -1.059478790450    1.094651138205
 H   -1.911925929021   -2.778478790450    0.878651138205
LI   -0.838417987155    1.082353051216   -0.529641022711
