14

 P   -0.089855205578    0.114673484313   -0.059536389026
 O   -0.676855205578    1.164673484313    0.895463610974
 O   -0.355855205578    0.162673484313   -1.571536389026
 O    1.573144794422   -0.059326515687    0.227463610974
 O   -0.404855205578   -1.443326515687    0.532463610974
 C    2.310144794422    1.105673484313   -0.149536389026
 H    1.979144794422    1.988673484313    0.426463610974
 H    2.195144794422    1.316673484313   -1.227536389026
 H    3.370144794422    0.903673484313    0.070463610974
 C   -1.795855205578   -1.766326515687    0.482463610974
 H   -2.173855205578   -1.739326515687   -0.555536389026
 H   -2.388855205578   -1.067326515687    1.098463610974
 H   -1.905855205578   -2.786326515687    0.882463610974
LI   -0.946576811117    1.222171763159   -0.597565805468
