14

 P   -0.086819843857    0.110749621695   -0.057630152642
 O   -0.673819843857    1.160749621695    0.897369847358
 O   -0.352819843857    0.158749621695   -1.569630152642
 O    1.576180156143   -0.063250378305    0.229369847358
 O   -0.401819843857   -1.447250378305    0.534369847358
 C    2.313180156143    1.101749621695   -0.147630152642
 H    1.982180156143    1.984749621695    0.428369847358
 H    2.198180156143    1.312749621695   -1.225630152642
 H    3.373180156143    0.899749621695    0.072369847358
 C   -1.792819843857   -1.770250378305    0.484369847358
 H   -2.170819843857   -1.743250378305   -0.553630152642
 H   -2.385819843857   -1.071250378305    1.100369847358
 H   -1.902819843857   -2.790250378305    0.884369847358
LI   -1.000656223098    1.292081119131   -0.631528196846
