14

 P   -0.083784482135    0.106825759076   -0.055723916258
 O   -0.670784482135    1.156825759076    0.899276083742
 O   -0.349784482135    0.154825759076   -1.567723916258
 O    1.579215517865   -0.067174240924    0.231276083742
 O   -0.398784482135   -1.451174240924    0.536276083742
 C    2.316215517865    1.097825759076   -0.145723916258
 H    1.985215517865    1.980825759076    0.430276083742
 H    2.201215517865    1.308825759076   -1.223723916258
 H    3.376215517865    0.895825759076    0.074276083742
 C   -1.789784482135   -1.774174240924    0.486276083742
 H   -2.167784482135   -1.747174240924   -0.551723916258
 H   -2.382784482135   -1.075174240924    1.102276083742
 H   -1.899784482135   -2.794174240924    0.886276083742
LI   -1.054735635079    1.361990475102   -0.665490588225
