14

 P   -0.077713758692    0.098978033840   -0.051911443489
 O   -0.664713758692    1.148978033840    0.903088556511
 O   -0.343713758692    0.146978033840   -1.563911443489
 O    1.585286241308   -0.075021966160    0.235088556511
 O   -0.392713758692   -1.459021966160    0.540088556511
 C    2.322286241308    1.089978033840   -0.141911443489
 H    1.991286241308    1.972978033840    0.434088556511
 H    2.207286241308    1.300978033840   -1.219911443489
 H    3.382286241308    0.887978033840    0.078088556511
 C   -1.783713758692   -1.782021966160    0.490088556511
 H   -2.161713758692   -1.755021966160   -0.547911443489
 H   -2.376713758692   -1.083021966160    1.106088556511
 H   -1.893713758692   -2.802021966160    0.890088556511
LI   -1.162894459041    1.501809187045   -0.733415370981
