14

 P   -0.068607673528    0.087206445985   -0.046192734336
 O   -0.655607673528    1.137206445985    0.908807265664
 O   -0.334607673528    0.135206445985   -1.558192734336
 O    1.594392326472   -0.086793554015    0.240807265664
 O   -0.383607673528   -1.470793554015    0.545807265664
 C    2.331392326472    1.078206445985   -0.136192734336
 H    2.000392326472    1.961206445985    0.439807265664
 H    2.216392326472    1.289206445985   -1.214192734336
 H    3.391392326472    0.876206445985    0.083807265664
 C   -1.774607673528   -1.793793554015    0.495807265664
 H   -2.152607673528   -1.766793554015   -0.542192734336
 H   -2.367607673528   -1.094793554015    1.111807265664
 H   -1.884607673528   -2.813793554015    0.895807265664
LI   -1.325132694984    1.711537254960   -0.835302545117
