14

 P   -0.065572311806    0.083282583367   -0.044286497952
 O   -0.652572311806    1.133282583367    0.910713502048
 O   -0.331572311806    0.131282583367   -1.556286497952
 O    1.597427688194   -0.090717416633    0.242713502048
 O   -0.380572311806   -1.474717416633    0.547713502048
 C    2.334427688194    1.074282583367   -0.134286497952
 H    2.003427688194    1.957282583367    0.441713502048
 H    2.219427688194    1.285282583367   -1.212286497952
 H    3.394427688194    0.872282583367    0.085713502048
 C   -1.771572311806   -1.797717416633    0.497713502048
 H   -2.149572311806   -1.770717416633   -0.540286497952
 H   -2.364572311806   -1.098717416633    1.113713502048
 H   -1.881572311806   -2.817717416633    0.897713502048
LI   -1.379212106965    1.781446610931   -0.869264936495
