14

 P   -0.062536950085    0.079358720748   -0.042380261567
 O   -0.649536950085    1.129358720748    0.912619738433
 O   -0.328536950085    0.127358720748   -1.554380261567
 O    1.600463049915   -0.094641279252    0.244619738433
 O   -0.377536950085   -1.478641279252    0.549619738433
 C    2.337463049915    1.070358720748   -0.132380261567
 H    2.006463049915    1.953358720748    0.443619738433
 H    2.222463049915    1.281358720748   -1.210380261567
 H    3.397463049915    0.868358720748    0.087619738433
 C   -1.768536950085   -1.801641279252    0.499619738433
 H   -2.146536950085   -1.774641279252   -0.538380261567
 H   -2.361536950085   -1.102641279252    1.115619738433
 H   -1.878536950085   -2.821641279252    0.899619738433
LI   -1.433291518946    1.851355966903   -0.903227327874
