14

 P   -0.053430864920    0.067587132893   -0.036661552414
 O   -0.640430864920    1.117587132893    0.918338447586
 O   -0.319430864920    0.115587132893   -1.548661552414
 O    1.609569135080   -0.106412867107    0.250338447586
 O   -0.368430864920   -1.490412867107    0.555338447586
 C    2.346569135080    1.058587132893   -0.126661552414
 H    2.015569135080    1.941587132893    0.449338447586
 H    2.231569135080    1.269587132893   -1.204661552414
 H    3.406569135080    0.856587132893    0.093338447586
 C   -1.759430864920   -1.813412867107    0.505338447586
 H   -2.137430864920   -1.786412867107   -0.532661552414
 H   -2.352430864920   -1.114412867107    1.121338447586
 H   -1.869430864920   -2.833412867107    0.905338447586
LI   -1.595529754889    2.061084034817   -1.005114502009
