14

 P   -0.047360141477    0.059739407657   -0.032849079646
 O   -0.634360141477    1.109739407657    0.922150920354
 O   -0.313360141477    0.107739407657   -1.544849079646
 O    1.615639858523   -0.114260592343    0.254150920354
 O   -0.362360141477   -1.498260592343    0.559150920354
 C    2.352639858523    1.050739407657   -0.122849079646
 H    2.021639858523    1.933739407657    0.453150920354
 H    2.237639858523    1.261739407657   -1.200849079646
 H    3.412639858523    0.848739407657    0.097150920354
 C   -1.753360141477   -1.821260592343    0.509150920354
 H   -2.131360141477   -1.794260592343   -0.528849079646
 H   -2.346360141477   -1.122260592343    1.125150920354
 H   -1.863360141477   -2.841260592343    0.909150920354
LI   -1.703688578851    2.200902746760   -1.073039284766
