14

 P   -0.041289418034    0.051891682420   -0.029036606877
 O   -0.628289418034    1.101891682420    0.925963393123
 O   -0.307289418034    0.099891682420   -1.541036606877
 O    1.621710581966   -0.122108317580    0.257963393123
 O   -0.356289418034   -1.506108317580    0.562963393123
 C    2.358710581966    1.042891682420   -0.119036606877
 H    2.027710581966    1.925891682420    0.456963393123
 H    2.243710581966    1.253891682420   -1.197036606877
 H    3.418710581966    0.840891682420    0.100963393123
 C   -1.747289418034   -1.829108317580    0.512963393123
 H   -2.125289418034   -1.802108317580   -0.525036606877
 H   -2.340289418034   -1.130108317580    1.128963393123
 H   -1.857289418034   -2.849108317580    0.912963393123
LI   -1.811847402813    2.340721458703   -1.140964067523
