14

 P   -0.032183332869    0.040120094565   -0.023317897724
 O   -0.619183332869    1.090120094565    0.931682102276
 O   -0.298183332869    0.088120094565   -1.535317897724
 O    1.630816667131   -0.133879905435    0.263682102276
 O   -0.347183332869   -1.517879905435    0.568682102276
 C    2.367816667131    1.031120094565   -0.113317897724
 H    2.036816667131    1.914120094565    0.462682102276
 H    2.252816667131    1.242120094565   -1.191317897724
 H    3.427816667131    0.829120094565    0.106682102276
 C   -1.738183332869   -1.840879905435    0.518682102276
 H   -2.116183332869   -1.813879905435   -0.519317897724
 H   -2.331183332869   -1.141879905435    1.134682102276
 H   -1.848183332869   -2.860879905435    0.918682102276
LI   -1.974085638756    2.550449526617   -1.242851241658
