14

 P   -0.029147971148    0.036196231947   -0.021411661340
 O   -0.616147971148    1.086196231947    0.933588338660
 O   -0.295147971148    0.084196231947   -1.533411661340
 O    1.633852028852   -0.137803768053    0.265588338660
 O   -0.344147971148   -1.521803768053    0.570588338660
 C    2.370852028852    1.027196231947   -0.111411661340
 H    2.039852028852    1.910196231947    0.464588338660
 H    2.255852028852    1.238196231947   -1.189411661340
 H    3.430852028852    0.825196231947    0.108588338660
 C   -1.735147971148   -1.844803768053    0.520588338660
 H   -2.113147971148   -1.817803768053   -0.517411661340
 H   -2.328147971148   -1.145803768053    1.136588338660
 H   -1.845147971148   -2.864803768053    0.920588338660
LI   -2.028165050737    2.620358882589   -1.276813633036
