14

 P   -0.017006524262    0.020500781474   -0.013786715802
 O   -0.604006524262    1.070500781474    0.941213284198
 O   -0.283006524262    0.068500781474   -1.525786715802
 O    1.645993475738   -0.153499218526    0.273213284198
 O   -0.332006524262   -1.537499218526    0.578213284198
 C    2.382993475738    1.011500781474   -0.103786715802
 H    2.051993475738    1.894500781474    0.472213284198
 H    2.267993475738    1.222500781474   -1.181786715802
 H    3.442993475738    0.809500781474    0.116213284198
 C   -1.723006524262   -1.860499218526    0.528213284198
 H   -2.101006524262   -1.833499218526   -0.509786715802
 H   -2.316006524262   -1.161499218526    1.144213284198
 H   -1.833006524262   -2.880499218526    0.928213284198
LI   -2.244482698661    2.899996306474   -1.412663198550
