14

 P   -0.001829715654    0.000881468382   -0.004255533881
 O   -0.588829715654    1.050881468382    0.950744466119
 O   -0.267829715654    0.048881468382   -1.516255533881
 O    1.661170284346   -0.173118531618    0.282744466119
 O   -0.316829715654   -1.557118531618    0.587744466119
 C    2.398170284346    0.991881468382   -0.094255533881
 H    2.067170284346    1.874881468382    0.481744466119
 H    2.283170284346    1.202881468382   -1.172255533881
 H    3.458170284346    0.789881468382    0.125744466119
 C   -1.707829715654   -1.880118531618    0.537744466119
 H   -2.085829715654   -1.853118531618   -0.500255533881
 H   -2.300829715654   -1.181118531618    1.153744466119
 H   -1.817829715654   -2.900118531618    0.937744466119
LI   -2.514879758566    3.249543086332   -1.582475155442
