14

 P    0.016382454675   -0.022661707328    0.007181884425
 O   -0.570617545325    1.027338292672    0.962181884425
 O   -0.249617545325    0.025338292672   -1.504818115575
 O    1.679382454675   -0.196661707328    0.294181884425
 O   -0.298617545325   -1.580661707328    0.599181884425
 C    2.416382454675    0.968338292672   -0.082818115575
 H    2.085382454675    1.851338292672    0.493181884425
 H    2.301382454675    1.179338292672   -1.160818115575
 H    3.476382454675    0.766338292672    0.137181884425
 C   -1.689617545325   -1.903661707328    0.549181884425
 H   -2.067617545325   -1.876661707328   -0.488818115575
 H   -2.282617545325   -1.204661707328    1.165181884425
 H   -1.799617545325   -2.923661707328    0.949181884425
LI   -2.839356230452    3.668999222160   -1.786249503713
