14

 P    0.019417816396   -0.026585569946    0.009088120810
 O   -0.567582183604    1.023414430054    0.964088120810
 O   -0.246582183604    0.021414430054   -1.502911879190
 O    1.682417816396   -0.200585569946    0.296088120810
 O   -0.295582183604   -1.584585569946    0.601088120810
 C    2.419417816396    0.964414430054   -0.080911879190
 H    2.088417816396    1.847414430054    0.495088120810
 H    2.304417816396    1.175414430054   -1.158911879190
 H    3.479417816396    0.762414430054    0.139088120810
 C   -1.686582183604   -1.907585569946    0.551088120810
 H   -2.064582183604   -1.880585569946   -0.486911879190
 H   -2.279582183604   -1.208585569946    1.167088120810
 H   -1.796582183604   -2.927585569946    0.951088120810
LI   -2.893435642433    3.738908578132   -1.820211895091
