14

 P    0.043700710169   -0.057976470892    0.024338011884
 O   -0.543299289831    0.992023529108    0.979338011884
 O   -0.222299289831   -0.009976470892   -1.487661988116
 O    1.706700710169   -0.231976470892    0.311338011884
 O   -0.271299289831   -1.615976470892    0.616338011884
 C    2.443700710169    0.933023529108   -0.065661988116
 H    2.112700710169    1.816023529108    0.510338011884
 H    2.328700710169    1.144023529108   -1.143661988116
 H    3.503700710169    0.731023529108    0.154338011884
 C   -1.662299289831   -1.938976470892    0.566338011884
 H   -2.040299289831   -1.911976470892   -0.471661988116
 H   -2.255299289831   -1.239976470892    1.182338011884
 H   -1.772299289831   -2.958976470892    0.966338011884
LI   -3.326070938282    4.298183425904   -2.091911026119
