14

 P    0.046736071890   -0.061900333511    0.026244248269
 O   -0.540263928110    0.988099666489    0.981244248269
 O   -0.219263928110   -0.013900333511   -1.485755751731
 O    1.709736071890   -0.235900333511    0.313244248269
 O   -0.268263928110   -1.619900333511    0.618244248269
 C    2.446736071890    0.929099666489   -0.063755751731
 H    2.115736071890    1.812099666489    0.512244248269
 H    2.331736071890    1.140099666489   -1.141755751731
 H    3.506736071890    0.727099666489    0.156244248269
 C   -1.659263928110   -1.942900333511    0.568244248269
 H   -2.037263928110   -1.915900333511   -0.469755751731
 H   -2.252263928110   -1.243900333511    1.184244248269
 H   -1.769263928110   -2.962900333511    0.968244248269
LI   -3.380150350263    4.368092781875   -2.125873417497
