14

 P    0.071018965662   -0.093291234457    0.041494139343
 O   -0.515981034338    0.956708765543    0.996494139343
 O   -0.194981034338   -0.045291234457   -1.470505860657
 O    1.734018965662   -0.267291234457    0.328494139343
 O   -0.243981034338   -1.651291234457    0.633494139343
 C    2.471018965662    0.897708765543   -0.048505860657
 H    2.140018965662    1.780708765543    0.527494139343
 H    2.356018965662    1.108708765543   -1.126505860657
 H    3.531018965662    0.695708765543    0.171494139343
 C   -1.634981034338   -1.974291234457    0.583494139343
 H   -2.012981034338   -1.947291234457   -0.454505860657
 H   -2.227981034338   -1.275291234457    1.199494139343
 H   -1.744981034338   -2.994291234457    0.983494139343
LI   -3.812785646111    4.927367629647   -2.397572548525
