14

 P    0.074054327384   -0.097215097075    0.043400375728
 O   -0.512945672616    0.952784902925    0.998400375728
 O   -0.191945672616   -0.049215097075   -1.468599624272
 O    1.737054327384   -0.271215097075    0.330400375728
 O   -0.240945672616   -1.655215097075    0.635400375728
 C    2.474054327384    0.893784902925   -0.046599624272
 H    2.143054327384    1.776784902925    0.529400375728
 H    2.359054327384    1.104784902925   -1.124599624272
 H    3.534054327384    0.691784902925    0.173400375728
 C   -1.631945672616   -1.978215097075    0.585400375728
 H   -2.009945672616   -1.951215097075   -0.452599624272
 H   -2.224945672616   -1.279215097075    1.201400375728
 H   -1.741945672616   -2.998215097075    0.985400375728
LI   -3.866865058092    4.997276985618   -2.431534939903
