14

 P    0.077089689105   -0.101138959694    0.045306612112
 O   -0.509910310895    0.948861040306    1.000306612112
 O   -0.188910310895   -0.053138959694   -1.466693387888
 O    1.740089689105   -0.275138959694    0.332306612112
 O   -0.237910310895   -1.659138959694    0.637306612112
 C    2.477089689105    0.889861040306   -0.044693387888
 H    2.146089689105    1.772861040306    0.531306612112
 H    2.362089689105    1.100861040306   -1.122693387888
 H    3.537089689105    0.687861040306    0.175306612112
 C   -1.628910310895   -1.982138959694    0.587306612112
 H   -2.006910310895   -1.955138959694   -0.450693387888
 H   -2.221910310895   -1.283138959694    1.203306612112
 H   -1.738910310895   -3.002138959694    0.987306612112
LI   -3.920944470073    5.067186341590   -2.465497331281
