14

 P    0.080125050827   -0.105062822312    0.047212848496
 O   -0.506874949173    0.944937177688    1.002212848496
 O   -0.185874949173   -0.057062822312   -1.464787151504
 O    1.743125050827   -0.279062822312    0.334212848496
 O   -0.234874949173   -1.663062822312    0.639212848496
 C    2.480125050827    0.885937177688   -0.042787151504
 H    2.149125050827    1.768937177688    0.533212848496
 H    2.365125050827    1.096937177688   -1.120787151504
 H    3.540125050827    0.683937177688    0.177212848496
 C   -1.625874949173   -1.986062822312    0.589212848496
 H   -2.003874949173   -1.959062822312   -0.448787151504
 H   -2.218874949173   -1.287062822312    1.205212848496
 H   -1.735874949173   -3.006062822312    0.989212848496
LI   -3.975023882054    5.137095697561   -2.499459722660
