14

 P    0.095301859434   -0.124682135404    0.056744030418
 O   -0.491698140566    0.925317864596    1.011744030418
 O   -0.170698140566   -0.076682135404   -1.455255969582
 O    1.758301859434   -0.298682135404    0.343744030418
 O   -0.219698140566   -1.682682135404    0.648744030418
 C    2.495301859434    0.866317864596   -0.033255969582
 H    2.164301859434    1.749317864596    0.542744030418
 H    2.380301859434    1.077317864596   -1.111255969582
 H    3.555301859434    0.664317864596    0.186744030418
 C   -1.610698140566   -2.005682135404    0.598744030418
 H   -1.988698140566   -1.978682135404   -0.439255969582
 H   -2.203698140566   -1.306682135404    1.214744030418
 H   -1.720698140566   -3.025682135404    0.998744030418
LI   -4.245420941959    5.486642477418   -2.669271679552
