14

 P    0.098337221156   -0.128605998022    0.058650266802
 O   -0.488662778844    0.921394001978    1.013650266802
 O   -0.167662778844   -0.080605998022   -1.453349733198
 O    1.761337221156   -0.302605998022    0.345650266802
 O   -0.216662778844   -1.686605998022    0.650650266802
 C    2.498337221156    0.862394001978   -0.031349733198
 H    2.167337221156    1.745394001978    0.544650266802
 H    2.383337221156    1.073394001978   -1.109349733198
 H    3.558337221156    0.660394001978    0.188650266802
 C   -1.607662778844   -2.009605998022    0.600650266802
 H   -1.985662778844   -1.982605998022   -0.437349733198
 H   -2.200662778844   -1.310605998022    1.216650266802
 H   -1.717662778844   -3.029605998022    1.000650266802
LI   -4.299500353940    5.556551833390   -2.703234070930
