14

 P    0.101372582878   -0.132529860640    0.060556503187
 O   -0.485627417122    0.917470139360    1.015556503187
 O   -0.164627417122   -0.084529860640   -1.451443496813
 O    1.764372582878   -0.306529860640    0.347556503187
 O   -0.213627417122   -1.690529860640    0.652556503187
 C    2.501372582878    0.858470139360   -0.029443496813
 H    2.170372582878    1.741470139360    0.546556503187
 H    2.386372582878    1.069470139360   -1.107443496813
 H    3.561372582878    0.656470139360    0.190556503187
 C   -1.604627417122   -2.013529860640    0.602556503187
 H   -1.982627417122   -1.986529860640   -0.435443496813
 H   -2.197627417122   -1.314529860640    1.218556503187
 H   -1.714627417122   -3.033529860640    1.002556503187
LI   -4.353579765921    5.626461189361   -2.737196462309
