14

 P    0.104407944599   -0.136453723258    0.062462739571
 O   -0.482592055401    0.913546276742    1.017462739571
 O   -0.161592055401   -0.088453723258   -1.449537260429
 O    1.767407944599   -0.310453723258    0.349462739571
 O   -0.210592055401   -1.694453723258    0.654462739571
 C    2.504407944599    0.854546276742   -0.027537260429
 H    2.173407944599    1.737546276742    0.548462739571
 H    2.389407944599    1.065546276742   -1.105537260429
 H    3.564407944599    0.652546276742    0.192462739571
 C   -1.601592055401   -2.017453723258    0.604462739571
 H   -1.979592055401   -1.990453723258   -0.433537260429
 H   -2.194592055401   -1.318453723258    1.220462739571
 H   -1.711592055401   -3.037453723258    1.004462739571
LI   -4.407659177902    5.696370545333   -2.771158853687
