14

 P    0.110478668042   -0.144301448495    0.066275212340
 O   -0.476521331958    0.905698551505    1.021275212340
 O   -0.155521331958   -0.096301448495   -1.445724787660
 O    1.773478668042   -0.318301448495    0.353275212340
 O   -0.204521331958   -1.702301448495    0.658275212340
 C    2.510478668042    0.846698551505   -0.023724787660
 H    2.179478668042    1.729698551505    0.552275212340
 H    2.395478668042    1.057698551505   -1.101724787660
 H    3.570478668042    0.644698551505    0.196275212340
 C   -1.595521331958   -2.025301448495    0.608275212340
 H   -1.973521331958   -1.998301448495   -0.429724787660
 H   -2.188521331958   -1.326301448495    1.224275212340
 H   -1.705521331958   -3.045301448495    1.008275212340
LI   -4.515818001864    5.836189257276   -2.839083636444
