14

 P    0.122620114928   -0.159996898968    0.073900157877
 O   -0.464379885072    0.890003101032    1.028900157877
 O   -0.143379885072   -0.111996898968   -1.438099842123
 O    1.785620114928   -0.333996898968    0.360900157877
 O   -0.192379885072   -1.717996898968    0.665900157877
 C    2.522620114928    0.831003101032   -0.016099842123
 H    2.191620114928    1.714003101032    0.559900157877
 H    2.407620114928    1.042003101032   -1.094099842123
 H    3.582620114928    0.629003101032    0.203900157877
 C   -1.583379885072   -2.040996898968    0.615900157877
 H   -1.961379885072   -2.013996898968   -0.422099842123
 H   -2.176379885072   -1.341996898968    1.231900157877
 H   -1.693379885072   -3.060996898968    1.015900157877
LI   -4.732135649788    6.115826681162   -2.974933201958
