14

 P    0.125655476650   -0.163920761587    0.075806394261
 O   -0.461344523350    0.886079238413    1.030806394261
 O   -0.140344523350   -0.115920761587   -1.436193605739
 O    1.788655476650   -0.337920761587    0.362806394261
 O   -0.189344523350   -1.721920761587    0.667806394261
 C    2.525655476650    0.827079238413   -0.014193605739
 H    2.194655476650    1.710079238413    0.561806394261
 H    2.410655476650    1.038079238413   -1.092193605739
 H    3.585655476650    0.625079238413    0.205806394261
 C   -1.580344523350   -2.044920761587    0.617806394261
 H   -1.958344523350   -2.017920761587   -0.420193605739
 H   -2.173344523350   -1.345920761587    1.233806394261
 H   -1.690344523350   -3.064920761587    1.017806394261
LI   -4.786215061769    6.185736037133   -3.008895593336
