14

 P    0.128690838371   -0.167844624205    0.077712630646
 O   -0.458309161629    0.882155375795    1.032712630646
 O   -0.137309161629   -0.119844624205   -1.434287369354
 O    1.791690838371   -0.341844624205    0.364712630646
 O   -0.186309161629   -1.725844624205    0.669712630646
 C    2.528690838371    0.823155375795   -0.012287369354
 H    2.197690838371    1.706155375795    0.563712630646
 H    2.413690838371    1.034155375795   -1.090287369354
 H    3.588690838371    0.621155375795    0.207712630646
 C   -1.577309161629   -2.048844624205    0.619712630646
 H   -1.955309161629   -2.021844624205   -0.418287369354
 H   -2.170309161629   -1.349844624205    1.235712630646
 H   -1.687309161629   -3.068844624205    1.019712630646
LI   -4.840294473750    6.255645393104   -3.042857984715
