14

 P    0.140832285257   -0.183540074678    0.085337576183
 O   -0.446167714743    0.866459925322    1.040337576183
 O   -0.125167714743   -0.135540074678   -1.426662423817
 O    1.803832285257   -0.357540074678    0.372337576183
 O   -0.174167714743   -1.741540074678    0.677337576183
 C    2.540832285257    0.807459925322   -0.004662423817
 H    2.209832285257    1.690459925322    0.571337576183
 H    2.425832285257    1.018459925322   -1.082662423817
 H    3.600832285257    0.605459925322    0.215337576183
 C   -1.565167714743   -2.064540074678    0.627337576183
 H   -1.943167714743   -2.037540074678   -0.410662423817
 H   -2.158167714743   -1.365540074678    1.243337576183
 H   -1.675167714743   -3.084540074678    1.027337576183
LI   -5.056612121674    6.535282816990   -3.178707550228
