14

 P    0.143867646979   -0.187463937296    0.087243812567
 O   -0.443132353021    0.862536062704    1.042243812567
 O   -0.122132353021   -0.139463937296   -1.424756187433
 O    1.806867646979   -0.361463937296    0.374243812567
 O   -0.171132353021   -1.745463937296    0.679243812567
 C    2.543867646979    0.803536062704   -0.002756187433
 H    2.212867646979    1.686536062704    0.573243812567
 H    2.428867646979    1.014536062704   -1.080756187433
 H    3.603867646979    0.601536062704    0.217243812567
 C   -1.562132353021   -2.068463937296    0.629243812567
 H   -1.940132353021   -2.041463937296   -0.408756187433
 H   -2.155132353021   -1.369463937296    1.245243812567
 H   -1.672132353021   -3.088463937296    1.029243812567
LI   -5.110691533655    6.605192172962   -3.212669941607
