14

 P    0.149938370422   -0.195311662533    0.091056285336
 O   -0.437061629578    0.854688337467    1.046056285336
 O   -0.116061629578   -0.147311662533   -1.420943714664
 O    1.812938370422   -0.369311662533    0.378056285336
 O   -0.165061629578   -1.753311662533    0.683056285336
 C    2.549938370422    0.795688337467    0.001056285336
 H    2.218938370422    1.678688337467    0.577056285336
 H    2.434938370422    1.006688337467   -1.076943714664
 H    3.609938370422    0.593688337467    0.221056285336
 C   -1.556061629578   -2.076311662533    0.633056285336
 H   -1.934061629578   -2.049311662533   -0.404943714664
 H   -2.149061629578   -1.377311662533    1.249056285336
 H   -1.666061629578   -3.096311662533    1.033056285336
LI   -5.218850357617    6.745010884905   -3.280594724364
