14

 P    0.156009093865   -0.203159387770    0.094868758105
 O   -0.430990906135    0.846840612230    1.049868758105
 O   -0.109990906135   -0.155159387770   -1.417131241895
 O    1.819009093865   -0.377159387770    0.381868758104
 O   -0.158990906135   -1.761159387770    0.686868758104
 C    2.556009093865    0.787840612230    0.004868758105
 H    2.225009093865    1.670840612230    0.580868758105
 H    2.441009093865    0.998840612230   -1.073131241895
 H    3.616009093865    0.585840612230    0.224868758104
 C   -1.549990906135   -2.084159387770    0.636868758104
 H   -1.927990906135   -2.057159387770   -0.401131241896
 H   -2.142990906135   -1.385159387770    1.252868758104
 H   -1.659990906135   -3.104159387770    1.036868758104
LI   -5.327009181579    6.884829596848   -3.348519507121
