14

 P    0.162079817308   -0.211007113006    0.098681230873
 O   -0.424920182692    0.838992886994    1.053681230873
 O   -0.103920182692   -0.163007113006   -1.413318769127
 O    1.825079817308   -0.385007113006    0.385681230873
 O   -0.152920182692   -1.769007113006    0.690681230873
 C    2.562079817308    0.779992886994    0.008681230873
 H    2.231079817308    1.662992886994    0.584681230873
 H    2.447079817308    0.990992886994   -1.069318769127
 H    3.622079817308    0.577992886994    0.228681230873
 C   -1.543920182692   -2.092007113006    0.640681230873
 H   -1.921920182692   -2.065007113006   -0.397318769127
 H   -2.136920182692   -1.393007113006    1.256681230873
 H   -1.653920182692   -3.112007113006    1.040681230873
LI   -5.435168005541    7.024648308791   -3.416444289877
