14

 P    0.165115179030   -0.214930975624    0.100587467257
 O   -0.421884820970    0.835069024376    1.055587467257
 O   -0.100884820970   -0.166930975624   -1.411412532743
 O    1.828115179030   -0.388930975624    0.387587467257
 O   -0.149884820970   -1.772930975624    0.692587467257
 C    2.565115179030    0.776069024376    0.010587467257
 H    2.234115179030    1.659069024376    0.586587467257
 H    2.450115179030    0.987069024376   -1.067412532743
 H    3.625115179030    0.574069024376    0.230587467257
 C   -1.540884820970   -2.095930975624    0.642587467257
 H   -1.918884820970   -2.068930975624   -0.395412532743
 H   -2.133884820970   -1.396930975624    1.258587467257
 H   -1.650884820970   -3.115930975624    1.042587467257
LI   -5.489247417522    7.094557664762   -3.450406681256
