16

 N   -1.952408620894    0.536816705637   -0.008290624782
 C   -0.720282888627   -0.093473574371   -0.007335664474
 N   -0.450141952501   -1.414359049339   -0.010799853421
 C    0.877987215962   -1.632552942089    0.004767575242
 H    1.191795498932   -2.679231674579    0.008147145933
 N    1.890336659003   -0.724571984948    0.018738845517
 C    1.578119915096    0.586249098301    0.014092441617
 N    2.585746869898    1.510747735606   -0.027729395314
 H    3.517198407285    1.180217626854    0.194728538819
 H    2.353009363871    2.470718490645    0.197080850126
 C    0.212619074222    0.962942952168    0.005321353902
 N   -0.410910236969    2.201908652798    0.015199562920
 C   -1.710835724126    1.893829264437    0.006744709762
 H   -2.520889252913    2.620410065539    0.010792847625
 H   -2.856198298064    0.076559581803   -0.015893680715
NA   -1.210591545177   -2.342580960958   -0.021777093021
