16

 N   -1.933972266217    0.559320535669   -0.008024492372
 C   -0.701846533950   -0.070969744339   -0.007069532064
 N   -0.431705597824   -1.391855219307   -0.010533721011
 C    0.896423570639   -1.610049112057    0.005033707652
 H    1.210231853609   -2.656727844547    0.008413278343
 N    1.908773013680   -0.702068154916    0.019004977927
 C    1.596556269773    0.608752928333    0.014358574027
 N    2.604183224575    1.533251565638   -0.027463262904
 H    3.535634761962    1.202721456886    0.194994671229
 H    2.371445718548    2.493222320677    0.197346982536
 C    0.231055428899    0.985446782200    0.005587486312
 N   -0.392473882292    2.224412482830    0.015465695330
 C   -1.692399369449    1.916333094469    0.007010842172
 H   -2.502452898236    2.642913895571    0.011058980035
 H   -2.837761943387    0.099063411835   -0.015627548305
NA   -1.318896789279   -2.474780782863   -0.023340500545
