16

 N   -1.924754088878    0.570572450686   -0.007891426167
 C   -0.692628356611   -0.059717829322   -0.006936465859
 N   -0.422487420485   -1.380603304290   -0.010400654806
 C    0.905641747978   -1.598797197040    0.005166773857
 H    1.219450030948   -2.645475929530    0.008546344548
 N    1.917991191019   -0.690816239899    0.019138044132
 C    1.605774447112    0.620004843350    0.014491640232
 N    2.613401401914    1.544503480655   -0.027330196699
 H    3.544852939301    1.213973371903    0.195127737434
 H    2.380663895887    2.504474235694    0.197480048741
 C    0.240273606238    0.996698697217    0.005720552517
 N   -0.383255704953    2.235664397847    0.015598761535
 C   -1.683181192110    1.927585009486    0.007143908377
 H   -2.493234720897    2.654165810588    0.011192046240
 H   -2.828543766048    0.110315326852   -0.015494482100
NA   -1.373049411330   -2.540880693815   -0.024122204307
