16

 N   -1.906317734201    0.593076280718   -0.007625293757
 C   -0.674192001934   -0.037213999290   -0.006670333449
 N   -0.404051065808   -1.358099474258   -0.010134522396
 C    0.924078102655   -1.576293367008    0.005432906267
 H    1.237886385625   -2.622972099498    0.008812476958
 N    1.936427545696   -0.668312409867    0.019404176542
 C    1.624210801789    0.642508673382    0.014757772642
 N    2.631837756591    1.567007310687   -0.027064064289
 H    3.563289293978    1.236477201935    0.195393869844
 H    2.399100250564    2.526978065726    0.197746181151
 C    0.258709960915    1.019202527249    0.005986684927
 N   -0.364819350276    2.258168227879    0.015864893945
 C   -1.664744837433    1.950088839518    0.007410040787
 H   -2.474798366220    2.676669640620    0.011458178650
 H   -2.810107411371    0.132819156884   -0.015228349690
NA   -1.481354655432   -2.673080515719   -0.025685611830
