16

 N   -1.869445024847    0.638083940782   -0.007093028938
 C   -0.637319292580    0.007793660774   -0.006138068630
 N   -0.367178356454   -1.313091814194   -0.009602257577
 C    0.960950812009   -1.531285706944    0.005965171086
 H    1.274759094979   -2.577964439434    0.009344741777
 N    1.973300255050   -0.623304749803    0.019936441361
 C    1.661083511143    0.687516333446    0.015290037461
 N    2.668710465945    1.612014970751   -0.026531799470
 H    3.600162003332    1.281484861999    0.195926134663
 H    2.435972959918    2.571985725790    0.198278445970
 C    0.295582670269    1.064210187313    0.006518949746
 N   -0.327946640922    2.303175887943    0.016397158764
 C   -1.627872128079    1.995096499582    0.007942305606
 H   -2.437925656866    2.721677300684    0.011990443469
 H   -2.773234702017    0.177826816948   -0.014696084871
NA   -1.697965143636   -2.937480159528   -0.028812426878
