16

 N   -1.804917783477    0.716847345895   -0.006161565503
 C   -0.572792051210    0.086557065887   -0.005206605195
 N   -0.302651115084   -1.234328409081   -0.008670794142
 C    1.025478053379   -1.452522301831    0.006896634521
 H    1.339286336349   -2.499201034321    0.010276205212
 N    2.037827496420   -0.544541344690    0.020867904796
 C    1.725610752513    0.766279738559    0.016221500896
 N    2.733237707315    1.690778375864   -0.025600336035
 H    3.664689244702    1.360248267112    0.196857598098
 H    2.500500201288    2.650749130903    0.199209909405
 C    0.360109911639    1.142973592426    0.007450413181
 N   -0.263419399552    2.381939293056    0.017328622199
 C   -1.563344886709    2.073859904695    0.008873769041
 H   -2.373398415496    2.800440705797    0.012921906904
 H   -2.708707460647    0.256590222061   -0.013764621436
NA   -2.077033497993   -3.400179536193   -0.034284353210
