16

 N   -1.795699606139    0.728099260912   -0.006028499298
 C   -0.563573873872    0.097808980904   -0.005073538990
 N   -0.293432937746   -1.223076494064   -0.008537727937
 C    1.034696230717   -1.441270386814    0.007029700726
 H    1.348504513687   -2.487949119304    0.010409271417
 N    2.047045673758   -0.533289429673    0.021000971001
 C    1.734828929851    0.777531653576    0.016354567101
 N    2.742455884653    1.702030290881   -0.025467269830
 H    3.673907422040    1.371500182129    0.196990664303
 H    2.509718378626    2.662001045920    0.199342975610
 C    0.369328088977    1.154225507443    0.007583479386
 N   -0.254201222214    2.393191208073    0.017461688404
 C   -1.554126709371    2.085111819712    0.009006835246
 H   -2.364180238158    2.811692620814    0.013054973109
 H   -2.699489283309    0.267842137078   -0.013631555231
NA   -2.131186120045   -3.466279447145   -0.035066056972
