16

 N   -1.768045074123    0.761855005960   -0.005629300684
 C   -0.535919341856    0.131564725952   -0.004674340376
 N   -0.265778405730   -1.189320749016   -0.008138529323
 C    1.062350762733   -1.407514641766    0.007428899340
 H    1.376159045703   -2.454193374256    0.010808470031
 N    2.074700205774   -0.499533684625    0.021400169615
 C    1.762483461867    0.811287398624    0.016753765715
 N    2.770110416669    1.735786035929   -0.025068071216
 H    3.701561954056    1.405255927177    0.197389862917
 H    2.537372910642    2.695756790968    0.199742174224
 C    0.396982620993    1.187981252491    0.007982678000
 N   -0.226546690198    2.426946953121    0.017860887018
 C   -1.526472177355    2.118867564760    0.009406033860
 H   -2.336525706142    2.845448365862    0.013454171723
 H   -2.671834751293    0.301597882126   -0.013232356617
NA   -2.293643986198   -3.664579180001   -0.037411168257
