16

 N   -1.721954187430    0.818114581041   -0.004963969659
 C   -0.489828455163    0.187824301033   -0.004009009351
 N   -0.219687519037   -1.133061173935   -0.007473198298
 C    1.108441649426   -1.351255066685    0.008094230365
 H    1.422249932396   -2.397933799175    0.011473801056
 N    2.120791092467   -0.443274109544    0.022065500640
 C    1.808574348560    0.867546973705    0.017419096740
 N    2.816201303362    1.792045611010   -0.024402740191
 H    3.747652840749    1.461515502258    0.198055193942
 H    2.583463797335    2.752016366049    0.200407505249
 C    0.443073507686    1.244240827572    0.008648009025
 N   -0.180455803505    2.483206528202    0.018526218043
 C   -1.480381290662    2.175127139841    0.010071364885
 H   -2.290434819449    2.901707940943    0.014119502748
 H   -2.625743864600    0.357857457207   -0.012567025592
NA   -2.564407096453   -3.995078734762   -0.041319687066
