16

 N   -1.703517832753    0.840618411073   -0.004697837249
 C   -0.471392100486    0.210328131065   -0.003742876941
 N   -0.201251164360   -1.110557343903   -0.007207065888
 C    1.126878004103   -1.328751236653    0.008360362775
 H    1.440686287073   -2.375429969143    0.011739933466
 N    2.139227447144   -0.420770279512    0.022331633050
 C    1.827010703237    0.890050803737    0.017685229150
 N    2.834637658039    1.814549441042   -0.024136607781
 H    3.766089195426    1.484019332290    0.198321326352
 H    2.601900152012    2.774520196081    0.200673637659
 C    0.461509862363    1.266744657604    0.008914141435
 N   -0.162019448828    2.505710358234    0.018792350453
 C   -1.461944935985    2.197630969873    0.010337497295
 H   -2.271998464772    2.924211770975    0.014385635158
 H   -2.607307509923    0.380361287239   -0.012300893182
NA   -2.672712340555   -4.127278556666   -0.042883094590
