16

 N   -1.675863300737    0.874374156122   -0.004298638634
 C   -0.443737568470    0.244083876114   -0.003343678326
 N   -0.173596632344   -1.076801598854   -0.006807867273
 C    1.154532536119   -1.294995491604    0.008759561390
 H    1.468340819089   -2.341674224094    0.012139132081
 N    2.166881979160   -0.387014534463    0.022730831665
 C    1.854665235253    0.923806548786    0.018084427765
 N    2.862292190055    1.848305186091   -0.023737409166
 H    3.793743727442    1.517775077339    0.198720524967
 H    2.629554684028    2.808275941130    0.201072836274
 C    0.489164394379    1.300500402653    0.009313340050
 N   -0.134364916812    2.539466103283    0.019191549068
 C   -1.434290403969    2.231386714922    0.010736695910
 H   -2.244343932756    2.957967516024    0.014784833773
 H   -2.579652977907    0.414117032288   -0.011901694567
NA   -2.835170206708   -4.325578289523   -0.045228205875
