16

 N   -1.638990591383    0.919381816186   -0.003766373815
 C   -0.406864859116    0.289091536178   -0.002811413507
 N   -0.136723922990   -1.031793938790   -0.006275602454
 C    1.191405245473   -1.249987831540    0.009291826209
 H    1.505213528443   -2.296666564030    0.012671396900
 N    2.203754688514   -0.342006874399    0.023263096484
 C    1.891537944607    0.968814208850    0.018616692584
 N    2.899164899409    1.893312846155   -0.023205144347
 H    3.830616436796    1.562782737403    0.199252789786
 H    2.666427393382    2.853283601194    0.201605101093
 C    0.526037103733    1.345508062717    0.009845604869
 N   -0.097492207458    2.584473763347    0.019723813887
 C   -1.397417694615    2.276394374986    0.011268960729
 H   -2.207471223402    3.002975176088    0.015317098592
 H   -2.542780268553    0.459124692352   -0.011369429748
NA   -3.051780694913   -4.589977933331   -0.048355020923
