16

 N   -1.592899704690    0.975641391267   -0.003101042790
 C   -0.360773972423    0.345351111259   -0.002146082482
 N   -0.090633036297   -0.975534363709   -0.005610271429
 C    1.237496132166   -1.193728256459    0.009957157234
 H    1.551304415136   -2.240406988949    0.013336727925
 N    2.249845575207   -0.285747299318    0.023928427509
 C    1.937628831300    1.025073783931    0.019282023609
 N    2.945255786102    1.949572421236   -0.022539813322
 H    3.876707323489    1.619042312484    0.199918120811
 H    2.712518280075    2.909543176275    0.202270432118
 C    0.572127990426    1.401767637798    0.010510935894
 N   -0.051401320765    2.640733338428    0.020389144912
 C   -1.351326807922    2.332653950067    0.011934291754
 H   -2.161380336709    3.059234751169    0.015982429617
 H   -2.496689381860    0.515384267433   -0.010704098723
NA   -3.322543805168   -4.920477488092   -0.052263539732
