16

 N   -1.583681527352    0.986893306283   -0.002967976585
 C   -0.351555795085    0.356603026275   -0.002013016277
 N   -0.081414858959   -0.964282448693   -0.005477205224
 C    1.246714309504   -1.182476341443    0.010090223439
 H    1.560522592474   -2.229155073933    0.013469794130
 N    2.259063752545   -0.274495384302    0.024061493714
 C    1.946847008638    1.036325698947    0.019415089814
 N    2.954473963440    1.960824336252   -0.022406747117
 H    3.885925500827    1.630294227500    0.200051187016
 H    2.721736457413    2.920795091291    0.202403498323
 C    0.581346167764    1.413019552814    0.010644002099
 N   -0.042183143427    2.651985253444    0.020522211117
 C   -1.342108630584    2.343905865083    0.012067357959
 H   -2.152162159371    3.070486666185    0.016115495822
 H   -2.487471204522    0.526636182449   -0.010571032518
NA   -3.376696427219   -4.986577399044   -0.053045243493
