16

 N   -1.556026995336    1.020649051331   -0.002568777970
 C   -0.323901263069    0.390358771323   -0.001613817662
 N   -0.053760326943   -0.930526703645   -0.005078006609
 C    1.274368841520   -1.148720596395    0.010489422054
 H    1.588177124490   -2.195399328885    0.013868992745
 N    2.286718284561   -0.240739639254    0.024460692329
 C    1.974501540654    1.070081443995    0.019814288429
 N    2.982128495456    1.994580081300   -0.022007548502
 H    3.913580032843    1.664049972548    0.200450385631
 H    2.749390989429    2.954550836339    0.202802696938
 C    0.609000699780    1.446775297862    0.011043200714
 N   -0.014528611411    2.685740998492    0.020921409732
 C   -1.314454098568    2.377661610131    0.012466556574
 H   -2.124507627355    3.104242411233    0.016514694437
 H   -2.459816672506    0.560391927497   -0.010171833903
NA   -3.539154293372   -5.184877131901   -0.055390354779
