16

 N   -1.537590640659    1.043152881364   -0.002302645561
 C   -0.305464908392    0.412862601356   -0.001347685253
 N   -0.035323972266   -0.908022873612   -0.004811874200
 C    1.292805196197   -1.126216766362    0.010755554463
 H    1.606613479167   -2.172895498852    0.014135125154
 N    2.305154639238   -0.218235809221    0.024726824738
 C    1.992937895331    1.092585274028    0.020080420838
 N    3.000564850133    2.017083911333   -0.021741416093
 H    3.932016387520    1.686553802581    0.200716518040
 H    2.767827344106    2.977054666372    0.203068829347
 C    0.627437054457    1.469279127895    0.011309333123
 N    0.003907743266    2.708244828525    0.021187542141
 C   -1.296017743891    2.400165440164    0.012732688983
 H   -2.106071272678    3.126746241266    0.016780826846
 H   -2.441380317829    0.582895757530   -0.009905701494
NA   -3.647459537474   -5.317076953805   -0.056953762302
