16

 N   -1.519154285982    1.065656711396   -0.002036513151
 C   -0.287028553715    0.435366431388   -0.001081552843
 N   -0.016887617589   -0.885519043580   -0.004545741790
 C    1.311241550874   -1.103712936330    0.011021686873
 H    1.625049833844   -2.150391668820    0.014401257564
 N    2.323590993915   -0.195731979189    0.024992957148
 C    2.011374250008    1.115089104060    0.020346553248
 N    3.019001204810    2.039587741365   -0.021475283683
 H    3.950452742197    1.709057632613    0.200982650450
 H    2.786263698783    2.999558496404    0.203334961757
 C    0.645873409134    1.491782957927    0.011575465533
 N    0.022344097943    2.730748658557    0.021453674551
 C   -1.277581389214    2.422669270196    0.012998821393
 H   -2.087634918001    3.149250071298    0.017046959256
 H   -2.422943963152    0.605399587562   -0.009639569084
NA   -3.755764781576   -5.449276775709   -0.058517169826
