16

 N   -1.500717931305    1.088160541428   -0.001770380741
 C   -0.268592199038    0.457870261420   -0.000815420433
 N    0.001548737088   -0.863015213548   -0.004279609380
 C    1.329677905551   -1.081209106298    0.011287819283
 H    1.643486188521   -2.127887838788    0.014667389974
 N    2.342027348592   -0.173228149157    0.025259089558
 C    2.029810604685    1.137592934092    0.020612685658
 N    3.037437559487    2.062091571397   -0.021209151273
 H    3.968889096874    1.731561462645    0.201248782860
 H    2.804700053460    3.022062326436    0.203601094167
 C    0.664309763811    1.514286787959    0.011841597943
 N    0.040780452620    2.753252488589    0.021719806961
 C   -1.259145034537    2.445173100228    0.013264953803
 H   -2.069198563324    3.171753901330    0.017313091666
 H   -2.404507608475    0.627903417594   -0.009373436674
NA   -3.864070025678   -5.581476597614   -0.060080577350
