16

 N   -1.463845221950    1.133168201493   -0.001238115921
 C   -0.231719489683    0.502877921485   -0.000283155613
 N    0.038421446443   -0.818007553483   -0.003747344560
 C    1.366550614906   -1.036201446233    0.011820084103
 H    1.680358897876   -2.082880178723    0.015199654794
 N    2.378900057947   -0.128220489092    0.025791354378
 C    2.066683314040    1.182600594157    0.021144950478
 N    3.074310268842    2.107099231462   -0.020676886453
 H    4.005761806229    1.776569122710    0.201781047680
 H    2.841572762815    3.067069986501    0.204133358987
 C    0.701182473166    1.559294448024    0.012373862763
 N    0.077653161975    2.798260148654    0.022252071781
 C   -1.222272325182    2.490180760293    0.013797218623
 H   -2.032325853969    3.216761561395    0.017845356486
 H   -2.367634899120    0.672911077659   -0.008841171854
NA   -4.080680513883   -5.845876241422   -0.063207392397
