16

 N   -1.436190689935    1.166923946541   -0.000838917307
 C   -0.204064957668    0.536633666533    0.000116043001
 N    0.066075978458   -0.784251808435   -0.003348145946
 C    1.394205146921   -1.002445701185    0.012219282717
 H    1.708013429891   -2.049124433675    0.015598853408
 N    2.406554589962   -0.094464744044    0.026190552992
 C    2.094337846055    1.216356339205    0.021544149092
 N    3.101964800857    2.140854976510   -0.020277687839
 H    4.033416338244    1.810324867758    0.202180246294
 H    2.869227294830    3.100825731549    0.204532557601
 C    0.728837005181    1.593050193072    0.012773061377
 N    0.105307693990    2.832015893702    0.022651270395
 C   -1.194617793167    2.523936505341    0.014196417237
 H   -2.004671321954    3.250517306443    0.018244555100
 H   -2.339980367105    0.706666822707   -0.008441973240
NA   -4.243138380036   -6.044175974279   -0.065552503682
