16

 N   -1.417754335258    1.189427776574   -0.000572784897
 C   -0.185628602991    0.559137496566    0.000382175411
 N    0.084512333135   -0.761747978402   -0.003082013536
 C    1.412641501598   -0.979941871152    0.012485415127
 H    1.726449784568   -2.026620603642    0.015864985818
 N    2.424990944639   -0.071960914011    0.026456685402
 C    2.112774200732    1.238860169238    0.021810281502
 N    3.120401155534    2.163358806543   -0.020011555429
 H    4.051852692921    1.832828697791    0.202446378704
 H    2.887663649507    3.123329561582    0.204798690011
 C    0.747273359858    1.615554023105    0.013039193787
 N    0.123744048667    2.854519723735    0.022917402805
 C   -1.176181438490    2.546440335374    0.014462549647
 H   -1.986234967277    3.273021136476    0.018510687510
 H   -2.321544012428    0.729170652740   -0.008175840830
NA   -4.351443624138   -6.176375796183   -0.067115911206
