16

 N   -1.399317980581    1.211931606606   -0.000306652487
 C   -0.167192248314    0.581641326598    0.000648307821
 N    0.102948687812   -0.739244148370   -0.002815881126
 C    1.431077856275   -0.957438041120    0.012751547537
 H    1.744886139245   -2.004116773610    0.016131118228
 N    2.443427299316   -0.049457083979    0.026722817812
 C    2.131210555409    1.261363999270    0.022076413912
 N    3.138837510211    2.185862636575   -0.019745423019
 H    4.070289047598    1.855332527823    0.202712511114
 H    2.906100004184    3.145833391614    0.205064822421
 C    0.765709714535    1.638057853137    0.013305326197
 N    0.142180403344    2.877023553767    0.023183535215
 C   -1.157745083813    2.568944165406    0.014728682057
 H   -1.967798612600    3.295524966508    0.018776819920
 H   -2.303107657751    0.751674482772   -0.007909708420
NA   -4.459748868240   -6.308575618087   -0.068679318729
