16

 N   -1.390099803242    1.223183521622   -0.000173586282
 C   -0.157974070975    0.592893241614    0.000781374026
 N    0.112166865151   -0.727992233354   -0.002682814921
 C    1.440296033614   -0.946186126104    0.012884613742
 H    1.754104316584   -1.992864858594    0.016264184433
 N    2.452645476655   -0.038205168963    0.026855884017
 C    2.140428732748    1.272615914286    0.022209480117
 N    3.148055687550    2.197114551591   -0.019612356814
 H    4.079507224937    1.866584442839    0.202845577319
 H    2.915318181523    3.157085306630    0.205197888626
 C    0.774927891874    1.649309768153    0.013438392402
 N    0.151398580683    2.888275468783    0.023316601420
 C   -1.148526906474    2.580196080422    0.014861748262
 H   -1.958580435261    3.306776881524    0.018909886125
 H   -2.293889480412    0.762926397788   -0.007776642215
NA   -4.513901490291   -6.374675529039   -0.069461022491
