16

 N   -1.380881625903    1.234435436638   -0.000040520077
 C   -0.148755893636    0.604145156630    0.000914440231
 N    0.121385042490   -0.716740318338   -0.002549748716
 C    1.449514210953   -0.934934211088    0.013017679947
 H    1.763322493923   -1.981612943578    0.016397250638
 N    2.461863653994   -0.026953253947    0.026988950222
 C    2.149646910087    1.283867829302    0.022342546322
 N    3.157273864889    2.208366466607   -0.019479290609
 H    4.088725402276    1.877836357855    0.202978643524
 H    2.924536358862    3.168337221646    0.205330954831
 C    0.784146069213    1.660561683169    0.013571458607
 N    0.160616758022    2.899527383799    0.023449667625
 C   -1.139308729135    2.591447995438    0.014994814467
 H   -1.949362257922    3.318028796540    0.019042952330
 H   -2.284671303073    0.774178312804   -0.007643576010
NA   -4.568054112342   -6.440775439991   -0.070242726253
