16

 N   -1.371663448565    1.245687351654    0.000092546128
 C   -0.139537716298    0.615397071646    0.001047506436
 N    0.130603219828   -0.705488403322   -0.002416682511
 C    1.458732388291   -0.923682296072    0.013150746152
 H    1.772540671261   -1.970361028562    0.016530316843
 N    2.471081831332   -0.015701338931    0.027122016427
 C    2.158865087425    1.295119744318    0.022475612527
 N    3.166492042227    2.219618381623   -0.019346224404
 H    4.097943579614    1.889088272871    0.203111709729
 H    2.933754536200    3.179589136662    0.205464021036
 C    0.793364246551    1.671813598185    0.013704524812
 N    0.169834935360    2.910779298815    0.023582733830
 C   -1.130090551797    2.602699910454    0.015127880672
 H   -1.940144080584    3.329280711556    0.019176018535
 H   -2.275453125735    0.785430227820   -0.007510509805
NA   -4.622206734393   -6.506875350944   -0.071024430015
