16

 N   -1.353227093888    1.268191181687    0.000358678538
 C   -0.121101361621    0.637900901679    0.001313638846
 N    0.149039574505   -0.682984573289   -0.002150550101
 C    1.477168742968   -0.901178466039    0.013416878562
 H    1.790977025938   -1.947857198529    0.016796449253
 N    2.489518186009    0.006802491102    0.027388148837
 C    2.177301442102    1.317623574351    0.022741744937
 N    3.184928396904    2.242122211656   -0.019080091994
 H    4.116379934291    1.911592102904    0.203377842139
 H    2.952190890877    3.202092966695    0.205730153446
 C    0.811800601228    1.694317428218    0.013970657222
 N    0.188271290037    2.933283128848    0.023848866240
 C   -1.111654197120    2.625203740487    0.015394013082
 H   -1.921707725907    3.351784541589    0.019442150945
 H   -2.257016771058    0.807934057853   -0.007244377395
NA   -4.730511978495   -6.639075172848   -0.072587837538
