16

 N   -1.344008916549    1.279443096703    0.000491744743
 C   -0.111883184282    0.649152816695    0.001446705051
 N    0.158257751844   -0.671732658273   -0.002017483896
 C    1.486386920307   -0.889926551023    0.013549944767
 H    1.800195203277   -1.936605283513    0.016929515458
 N    2.498736363348    0.018054406118    0.027521215042
 C    2.186519619441    1.328875489367    0.022874811142
 N    3.194146574243    2.253374126672   -0.018947025789
 H    4.125598111630    1.922844017920    0.203510908344
 H    2.961409068216    3.213344881711    0.205863219651
 C    0.821018778567    1.705569343234    0.014103723427
 N    0.197489467376    2.944535043864    0.023981932445
 C   -1.102436019781    2.636455655503    0.015527079287
 H   -1.912489548568    3.363036456605    0.019575217150
 H   -2.247798593719    0.819185972869   -0.007111311190
NA   -4.784664600546   -6.705175083800   -0.073369541300
