16

 N   -1.325572561872    1.301946926735    0.000757877152
 C   -0.093446829605    0.671656646727    0.001712837460
 N    0.176694106521   -0.649228828241   -0.001751351487
 C    1.504823274984   -0.867422720991    0.013816077176
 H    1.818631557954   -1.914101453481    0.017195647867
 N    2.517172718025    0.040558236150    0.027787347451
 C    2.204955974118    1.351379319399    0.023140943551
 N    3.212582928920    2.275877956704   -0.018680893380
 H    4.144034466307    1.945347847952    0.203777040753
 H    2.979845422893    3.235848711743    0.206129352060
 C    0.839455133244    1.728073173266    0.014369855836
 N    0.215925822053    2.967038873896    0.024248064854
 C   -1.083999665104    2.658959485535    0.015793211696
 H   -1.894053193891    3.385540286637    0.019841349559
 H   -2.229362239042    0.841689802901   -0.006845178781
NA   -4.892969844649   -6.837374905704   -0.074932948824
