16

 N   -1.307136207195    1.324450756767    0.001024009562
 C   -0.075010474928    0.694160476759    0.001978969870
 N    0.195130461198   -0.626724998209   -0.001485219077
 C    1.523259629661   -0.844918890959    0.014082209586
 H    1.837067912631   -1.891597623449    0.017461780277
 N    2.535609072702    0.063062066182    0.028053479861
 C    2.223392328795    1.373883149431    0.023407075961
 N    3.231019283597    2.298381786736   -0.018414760970
 H    4.162470820984    1.967851677984    0.204043173163
 H    2.998281777570    3.258352541775    0.206395484470
 C    0.857891487921    1.750577003298    0.014635988246
 N    0.234362176730    2.989542703928    0.024514197264
 C   -1.065563310427    2.681463315567    0.016059344106
 H   -1.875616839214    3.408044116669    0.020107481969
 H   -2.210925884365    0.864193632933   -0.006579046371
NA   -5.001275088751   -6.969574727609   -0.076496356347
