16

 N   -1.297918029856    1.335702671783    0.001157075767
 C   -0.065792297589    0.705412391775    0.002112036075
 N    0.204348638537   -0.615473083193   -0.001352152872
 C    1.532477807000   -0.833666975943    0.014215275791
 H    1.846286089970   -1.880345708433    0.017594846482
 N    2.544827250041    0.074313981198    0.028186546066
 C    2.232610506134    1.385135064447    0.023540142166
 N    3.240237460936    2.309633701752   -0.018281694765
 H    4.171688998323    1.979103593000    0.204176239368
 H    3.007499954909    3.269604456791    0.206528550675
 C    0.867109665260    1.761828918314    0.014769054451
 N    0.243580354069    3.000794618944    0.024647263469
 C   -1.056345133088    2.692715230583    0.016192410311
 H   -1.866398661875    3.419296031685    0.020240548174
 H   -2.201707707026    0.875445547949   -0.006445980166
NA   -5.055427710802   -7.035674638561   -0.077278060109
