16

 N   -1.288699852518    1.346954586800    0.001290141972
 C   -0.056574120251    0.716664306792    0.002245102280
 N    0.213566815875   -0.604221168176   -0.001219086667
 C    1.541695984338   -0.822415060926    0.014348341996
 H    1.855504267308   -1.869093793416    0.017727912687
 N    2.554045427379    0.085565896215    0.028319612271
 C    2.241828683472    1.396386979464    0.023673208371
 N    3.249455638274    2.320885616769   -0.018148628560
 H    4.180907175661    1.990355508017    0.204309305573
 H    3.016718132247    3.280856371808    0.206661616880
 C    0.876327842598    1.773080833331    0.014902120656
 N    0.252798531407    3.012046533961    0.024780329674
 C   -1.047126955750    2.703967145600    0.016325476516
 H   -1.857180484537    3.430547946702    0.020373614379
 H   -2.192489529688    0.886697462966   -0.006312913961
NA   -5.109580332853   -7.101774549513   -0.078059763871
