16

 N   -1.251827143164    1.391962246864    0.001822406792
 C   -0.019701410897    0.761671966856    0.002777367100
 N    0.250439525229   -0.559213508112   -0.000686821847
 C    1.578568693692   -0.777407400862    0.014880606816
 H    1.892376976662   -1.824086133352    0.018260177507
 N    2.590918136733    0.130573556279    0.028851877091
 C    2.278701392826    1.441394639528    0.024205473191
 N    3.286328347628    2.365893276833   -0.017616363740
 H    4.217779885015    2.035363168081    0.204841570393
 H    3.053590841601    3.325864031872    0.207193881700
 C    0.913200551952    1.818088493395    0.015434385476
 N    0.289671240761    3.057054194025    0.025312594494
 C   -1.010254246396    2.748974805664    0.016857741336
 H   -1.820307775183    3.475555606766    0.020905879199
 H   -2.155616820334    0.931705123030   -0.005780649141
NA   -5.326190821057   -7.366174193322   -0.081186578918
