16

 N   -1.233390788487    1.414466076896    0.002088539201
 C   -0.001265056220    0.784175796888    0.003043499509
 N    0.268875879906   -0.536709678080   -0.000420689438
 C    1.597005048369   -0.754903570830    0.015146739225
 H    1.910813331339   -1.801582303320    0.018526309916
 N    2.609354491410    0.153077386311    0.029118009500
 C    2.297137747503    1.463898469560    0.024471605600
 N    3.304764702305    2.388397106865   -0.017350231331
 H    4.236216239692    2.057866998113    0.205107702802
 H    3.072027196278    3.348367861904    0.207460014109
 C    0.931636906629    1.840592323427    0.015700517885
 N    0.308107595438    3.079558024057    0.025578726903
 C   -0.991817891719    2.771478635696    0.017123873745
 H   -1.801871420506    3.498059436798    0.021172011608
 H   -2.137180465657    0.954208953062   -0.005514516732
NA   -5.434496065159   -7.498374015226   -0.082749986442
