16

 N   -1.224172611148    1.425717991913    0.002221605406
 C    0.007953121119    0.795427711905    0.003176565714
 N    0.278094057245   -0.525457763063   -0.000287623233
 C    1.606223225708   -0.743651655813    0.015279805430
 H    1.920031508678   -1.790330388303    0.018659376121
 N    2.618572668749    0.164329301328    0.029251075705
 C    2.306355924842    1.475150384577    0.024604671805
 N    3.313982879644    2.399649021882   -0.017217165126
 H    4.245434417031    2.069118913130    0.205240769007
 H    3.081245373617    3.359619776921    0.207593080314
 C    0.940855083968    1.851844238444    0.015833584090
 N    0.317325772777    3.090809939074    0.025711793108
 C   -0.982599714380    2.782730550713    0.017256939950
 H   -1.792653243167    3.509311351815    0.021305077813
 H   -2.127962288318    0.965460868079   -0.005381450527
NA   -5.488648687210   -7.564473926178   -0.083531690204
