16

 N   -1.205736256471    1.448221821945    0.002487737816
 C    0.026389475796    0.817931541937    0.003442698124
 N    0.296530411922   -0.502953933031   -0.000021490823
 C    1.624659580385   -0.721147825781    0.015545937840
 H    1.938467863355   -1.767826558271    0.018925508531
 N    2.637009023426    0.186833131360    0.029517208115
 C    2.324792279519    1.497654214609    0.024870804215
 N    3.332419234321    2.422152851914   -0.016951032716
 H    4.263870771708    2.091622743162    0.205506901417
 H    3.099681728294    3.382123606953    0.207859212724
 C    0.959291438645    1.874348068476    0.016099716500
 N    0.335762127454    3.113313769106    0.025977925518
 C   -0.964163359703    2.805234380745    0.017523072360
 H   -1.774216888490    3.531815181847    0.021571210223
 H   -2.109525933641    0.987964698111   -0.005115318117
NA   -5.596953931312   -7.696673748082   -0.085095097727
