16

 N   -1.196518079132    1.459473736961    0.002620804021
 C    0.035607653135    0.829183456953    0.003575764329
 N    0.305748589261   -0.491702018015    0.000111575382
 C    1.633877757724   -0.709895910765    0.015679004045
 H    1.947686040694   -1.756574643255    0.019058574736
 N    2.646227200765    0.198085046376    0.029650274320
 C    2.334010456858    1.508906129625    0.025003870420
 N    3.341637411660    2.433404766930   -0.016817966511
 H    4.273088949047    2.102874658178    0.205639967622
 H    3.108899905633    3.393375521969    0.207992278929
 C    0.968509615984    1.885599983492    0.016232782705
 N    0.344980304793    3.124565684122    0.026110991723
 C   -0.954945182364    2.816486295761    0.017656138565
 H   -1.764998711151    3.543067096863    0.021704276428
 H   -2.100307756302    0.999216613127   -0.004982251912
NA   -5.651106553363   -7.762773659034   -0.085876801489
