16

 N   -1.178081724455    1.481977566993    0.002886936431
 C    0.054044007812    0.851687286985    0.003841896739
 N    0.324184943938   -0.469198187983    0.000377707792
 C    1.652314112401   -0.687392080733    0.015945136455
 H    1.966122395371   -1.734070813223    0.019324707146
 N    2.664663555442    0.220588876408    0.029916406730
 C    2.352446811535    1.531409959657    0.025270002830
 N    3.360073766337    2.455908596962   -0.016551834101
 H    4.291525303724    2.125378488210    0.205906100032
 H    3.127336260310    3.415879352001    0.208258411339
 C    0.986945970661    1.908103813524    0.016498915115
 N    0.363416659470    3.147069514154    0.026377124133
 C   -0.936508827687    2.838990125793    0.017922270975
 H   -1.746562356474    3.565570926895    0.021970408838
 H   -2.081871401625    1.021720443159   -0.004716119502
NA   -5.759411797465   -7.894973480939   -0.087440209013
