28

 P    1.163429856742   -1.466994811181    0.904250230130
 O    0.762279856742   -0.813354811181    2.242290230130
 O    0.542489856742   -0.736984811181   -0.322349769870
 O    2.783219856742   -1.634894811181    0.729050230130
 O    0.846139856742   -3.073554811181    0.851260230130
 C    3.534569856742   -0.413004811181    0.857190230130
 H    3.366259856742    0.041935188819    1.844110230130
 H    3.261499856742    0.297525188819    0.061430230130
 H    4.589199856742   -0.689244811181    0.750980230130
 C   -0.528170143258   -3.424174811181    1.099740230130
 H   -1.185100143258   -3.001444811181    0.323320230130
 H   -0.842670143258   -3.071404811181    2.093160230130
 H   -0.578620143258   -4.517724811181    1.061460230130
NA   -0.513580143258    0.806145188819    1.280080230130
NA   -0.369400143258    0.307225188819   -1.966359769870
 P   -1.001031032304    1.262222976587   -0.778031047683
 O   -2.620824920151    1.430125817679   -0.602832492479
 O   -0.683744653074    2.868794689804   -0.725041846466
 O   -0.599886562410    0.608588179953   -2.116070241617
 O   -0.380090040813    0.532213425903    0.448571183319
 C   -3.372182047594    0.208235434976   -0.730976070545
 H   -3.203866080828   -0.246710635726   -1.717896484857
 H   -3.099107210200   -0.502305016799    0.064792669714
 H   -4.426813907849    0.484469441649   -0.624760018119
 C    0.690565442182    3.219407212950   -0.973519261121
 H    1.347492940913    2.796687579256   -0.197108091185
 H    1.005064049270    2.866645061441   -1.966943391441
 H    0.741021271563    4.312964820259   -0.935241057443
