28

 P    1.281584381359   -1.615978528983    0.996083326148
 O    0.880434381359   -0.962338528983    2.334123326148
 O    0.660644381359   -0.885968528983   -0.230516673852
 O    2.901374381359   -1.783878528983    0.820883326148
 O    0.964294381359   -3.222538528983    0.943093326148
 C    3.652724381359   -0.561988528983    0.949023326148
 H    3.484414381359   -0.107048528983    1.935943326148
 H    3.379654381359    0.148541471017    0.153263326148
 H    4.707354381359   -0.838228528983    0.842813326148
 C   -0.410015618641   -3.573158528983    1.191573326148
 H   -1.066945618641   -3.150428528983    0.415153326148
 H   -0.724515618641   -3.220388528983    2.184993326148
 H   -0.460465618641   -4.666708528983    1.153293326148
NA   -0.395425618641    0.657161471017    1.371913326148
NA   -0.251245618641    0.158241471017   -1.874526673852
 P   -1.162646952210    1.466008152668   -0.903643590571
 O   -2.782440840058    1.633910993760   -0.728445035367
 O   -0.845360572980    3.072579865885   -0.850654389355
 O   -0.761502482317    0.812373356035   -2.241682784505
 O   -0.541705960720    0.735998601985    0.322958640430
 C   -3.533797967500    0.412020611057   -0.856588613434
 H   -3.365482000734   -0.042925459645   -1.843509027745
 H   -3.260723130106   -0.298519840718   -0.060819873175
 H   -4.588429827755    0.688254617731   -0.750372561007
 C    0.528949522275    3.423192389031   -1.099131804009
 H    1.185877021006    3.000472755338   -0.322720634073
 H    0.843448129363    3.070430237523   -2.092555934329
 H    0.579405351656    4.516749996341   -1.060853600331
