28

 P    1.305215286282   -1.645775272544    1.014449945352
 O    0.904065286282   -0.992135272544    2.352489945352
 O    0.684275286282   -0.915765272544   -0.212150054648
 O    2.925005286282   -1.813675272544    0.839249945352
 O    0.987925286282   -3.252335272544    0.961459945352
 C    3.676355286282   -0.591785272544    0.967389945352
 H    3.508045286282   -0.136845272544    1.954309945352
 H    3.403285286282    0.118744727456    0.171629945352
 H    4.730985286282   -0.868025272544    0.861179945352
 C   -0.386384713718   -3.602955272544    1.209939945352
 H   -1.043314713718   -3.180225272544    0.433519945352
 H   -0.700884713718   -3.250185272544    2.203359945352
 H   -0.436834713718   -4.696505272544    1.171659945352
NA   -0.371794713718    0.627364727456    1.390279945352
NA   -0.227614713718    0.128444727456   -1.856160054648
 P   -1.194970136192    1.506765187885   -0.928766099148
 O   -2.814764024039    1.674668028976   -0.753567543945
 O   -0.877683756962    3.113336901102   -0.875776897932
 O   -0.793825666298    0.853130391251   -2.266805293083
 O   -0.574029144701    0.776755637201    0.297836131853
 C   -3.566121151482    0.452777646274   -0.881711122011
 H   -3.397805184716   -0.002168424429   -1.868631536322
 H   -3.293046314087   -0.257762805501   -0.085942381752
 H   -4.620753011736    0.729011652947   -0.775495069585
 C    0.496626338294    3.463949424247   -1.124254312587
 H    1.153553837025    3.041229790554   -0.347843142651
 H    0.811124945382    3.111187272739   -2.117678442907
 H    0.547082167675    4.557507031557   -1.085976108909
