28

 P    1.328846191205   -1.675572016104    1.032816564555
 O    0.927696191205   -1.021932016104    2.370856564555
 O    0.707906191205   -0.945562016104   -0.193783435445
 O    2.948636191205   -1.843472016104    0.857616564555
 O    1.011556191205   -3.282132016104    0.979826564555
 C    3.699986191205   -0.621582016104    0.985756564555
 H    3.531676191205   -0.166642016104    1.972676564555
 H    3.426916191205    0.088947983896    0.189996564555
 H    4.754616191205   -0.897822016104    0.879546564555
 C   -0.362753808795   -3.632752016104    1.228306564555
 H   -1.019683808795   -3.210022016104    0.451886564555
 H   -0.677253808795   -3.279982016104    2.221726564555
 H   -0.413203808795   -4.726302016104    1.190026564555
NA   -0.348163808795    0.597567983896    1.408646564555
NA   -0.203983808795    0.098647983896   -1.837793435445
 P   -1.227293320173    1.547522223101   -0.953888607726
 O   -2.847087208020    1.715425064193   -0.778690052523
 O   -0.910006940943    3.154093936318   -0.900899406510
 O   -0.826148850280    0.893887426467   -2.291927801660
 O   -0.606352328682    0.817512672417    0.272713623275
 C   -3.598444335463    0.493534681490   -0.906833630589
 H   -3.430128368697    0.038588610788   -1.893754044900
 H   -3.325369498069   -0.217005770285   -0.111064890330
 H   -4.653076195718    0.769768688163   -0.800617578162
 C    0.464303154312    3.504706459464   -1.149376821164
 H    1.121230653044    3.081986825770   -0.372965651229
 H    0.778801761401    3.151944307955   -2.142800951484
 H    0.514758983694    4.598264066773   -1.111098617486
