28

 P    1.399738905975   -1.764962246786    1.087916422166
 O    0.998588905975   -1.111322246786    2.425956422166
 O    0.778798905975   -1.034952246786   -0.138683577834
 O    3.019528905975   -1.932862246786    0.912716422166
 O    1.082448905975   -3.371522246786    1.034926422166
 C    3.770878905975   -0.710972246786    1.040856422166
 H    3.602568905975   -0.256032246786    2.027776422166
 H    3.497808905975   -0.000442246786    0.245096422166
 H    4.825508905975   -0.987212246786    0.934646422166
 C   -0.291861094025   -3.722142246786    1.283406422166
 H   -0.948791094025   -3.299412246786    0.506986422166
 H   -0.606361094025   -3.369372246786    2.276826422166
 H   -0.342311094025   -4.815692246786    1.245126422166
NA   -0.277271094025    0.508177753214    1.463746422166
NA   -0.133091094025    0.009257753214   -1.782693577834
 P   -1.324262872117    1.669793328750   -1.029256133459
 O   -2.944056759964    1.837696169841   -0.854057578256
 O   -1.006976492887    3.276365041967   -0.976266932243
 O   -0.923118402223    1.016158532116   -2.367295327393
 O   -0.703321880626    0.939783778066    0.197346097542
 C   -3.695413887407    0.615805787139   -0.982201156322
 H   -3.527097920641    0.160859716436   -1.969121570633
 H   -3.422339050013   -0.094734664636   -0.186432416063
 H   -4.750045747662    0.892039793812   -0.875985103895
 C    0.367333602368    3.626977565112   -1.224744346897
 H    1.024261101100    3.204257931419   -0.448333176962
 H    0.681832209457    3.274215413604   -2.218168477217
 H    0.417789431750    4.720535172422   -1.186466143219
