28

 P    1.423369810898   -1.794758990347    1.106283041370
 O    1.022219810898   -1.141118990347    2.444323041370
 O    0.802429810898   -1.064748990347   -0.120316958630
 O    3.043159810898   -1.962658990347    0.931083041370
 O    1.106079810898   -3.401318990347    1.053293041370
 C    3.794509810898   -0.740768990347    1.059223041370
 H    3.626199810898   -0.285828990347    2.046143041370
 H    3.521439810898   -0.030238990347    0.263463041370
 H    4.849139810898   -1.017008990347    0.953013041370
 C   -0.268230189102   -3.751938990347    1.301773041370
 H   -0.925160189102   -3.329208990347    0.525353041370
 H   -0.582730189102   -3.399168990347    2.295193041370
 H   -0.318680189102   -4.845488990347    1.263493041370
NA   -0.253640189102    0.478381009653    1.482113041370
NA   -0.109460189102   -0.020538990347   -1.764326958630
 P   -1.356586056098    1.710550363966   -1.054378642037
 O   -2.976379943946    1.878453205058   -0.879180086833
 O   -1.039299676868    3.317122077183   -1.001389440821
 O   -0.955441586205    1.056915567332   -2.392417835971
 O   -0.735645064608    0.980540813282    0.172223588965
 C   -3.727737071388    0.656562822355   -1.007323664900
 H   -3.559421104622    0.201616751653   -1.994244079211
 H   -3.454662233994   -0.053977629420   -0.211554924640
 H   -4.782368931643    0.932796829028   -0.901107612473
 C    0.335010418387    3.667734600329   -1.249866855475
 H    0.991937917119    3.245014966635   -0.473455685539
 H    0.649509025476    3.314972448820   -2.243290985795
 H    0.385466247768    4.761292207638   -1.211588651797
