28

 P    1.565155240438   -1.973539451710    1.216482756591
 O    1.164005240438   -1.319899451710    2.554522756591
 O    0.944215240438   -1.243529451710   -0.010117243409
 O    3.184945240438   -2.141439451710    1.041282756591
 O    1.247865240438   -3.580099451710    1.163492756591
 C    3.936295240438   -0.919549451710    1.169422756591
 H    3.767985240438   -0.464609451710    2.156342756591
 H    3.663225240438   -0.209019451710    0.373662756591
 H    4.990925240438   -1.195789451710    1.063212756591
 C   -0.126444759562   -3.930719451710    1.411972756591
 H   -0.783374759562   -3.507989451710    0.635552756591
 H   -0.440944759562   -3.577949451710    2.405392756591
 H   -0.176894759562   -5.024269451710    1.373692756591
NA   -0.111854759562    0.299600548290    1.592312756591
NA    0.032325240438   -0.199319451710   -1.654127243409
 P   -1.550525159986    1.955092575264   -1.205113693503
 O   -3.170319047833    2.122995416355   -1.029915138299
 O   -1.233238780756    3.561664288481   -1.152124492286
 O   -1.149380690093    1.301457778630   -2.543152887437
 O   -0.929584168495    1.225083024580    0.021488537499
 C   -3.921676175276    0.901105033653   -1.158058716366
 H   -3.753360208510    0.446158962950   -2.144979130677
 H   -3.648601337882    0.190564581878   -0.362289976106
 H   -4.976308035531    1.177339040326   -1.051842663939
 C    0.141071314499    3.912276811626   -1.400601906941
 H    0.797998813231    3.489557177933   -0.624190737005
 H    0.455569921588    3.559514660118   -2.394026037261
 H    0.191527143881    5.005834418936   -1.362323703263
