28

 P    1.612417050284   -2.033132938831    1.253215994998
 O    1.211267050284   -1.379492938831    2.591255994998
 O    0.991477050284   -1.303122938831    0.026615994998
 O    3.232207050284   -2.201032938831    1.078015994998
 O    1.295127050284   -3.639692938831    1.200225994998
 C    3.983557050284   -0.979142938831    1.206155994998
 H    3.815247050284   -0.524202938831    2.193075994998
 H    3.710487050284   -0.268612938831    0.410395994998
 H    5.038187050284   -1.255382938831    1.099945994998
 C   -0.079182949716   -3.990312938831    1.448705994998
 H   -0.736112949716   -3.567582938831    0.672285994998
 H   -0.393682949716   -3.637542938831    2.442125994998
 H   -0.129632949716   -5.083862938831    1.410425994998
NA   -0.064592949716    0.240007061169    1.629045994998
NA    0.079587050284   -0.258912938831   -1.617394005002
 P   -1.615171527949    2.036606645696   -1.255358710658
 O   -3.234965415796    2.204509486788   -1.080160155455
 O   -1.297885148719    3.643178358913   -1.202369509442
 O   -1.214027058055    1.382971849063   -2.593397904592
 O   -0.994230536458    1.306597095012   -0.028756479657
 C   -3.986322543239    0.982619104085   -1.208303733521
 H   -3.818006576473    0.527673033383   -2.195224147832
 H   -3.713247705845    0.272078652310   -0.412534993262
 H   -5.040954403493    1.258853110758   -1.102087681094
 C    0.076424946537    3.993790882059   -1.450846924096
 H    0.733352445268    3.571071248365   -0.674435754161
 H    0.390923553625    3.641028730551   -2.444271054416
 H    0.126880775918    5.087348489368   -1.412568720418
