28

 P    1.636047955208   -2.062929682391    1.271582614202
 O    1.234897955208   -1.409289682391    2.609622614202
 O    1.015107955208   -1.332919682391    0.044982614202
 O    3.255837955208   -2.230829682391    1.096382614202
 O    1.318757955208   -3.669489682391    1.218592614202
 C    4.007187955208   -1.008939682391    1.224522614202
 H    3.838877955208   -0.553999682391    2.211442614202
 H    3.734117955208   -0.298409682391    0.428762614202
 H    5.061817955208   -1.285179682391    1.118312614202
 C   -0.055552044792   -4.020109682391    1.467072614202
 H   -0.712482044792   -3.597379682391    0.690652614202
 H   -0.370052044792   -3.667339682391    2.460492614202
 H   -0.106002044792   -5.113659682391    1.428792614202
NA   -0.040962044792    0.210210317609    1.647412614202
NA    0.103217955208   -0.288709682391   -1.599027385798
 P   -1.647494711930    2.077363680912   -1.280481219236
 O   -3.267288599777    2.245266522004   -1.105282664032
 O   -1.330208332700    3.683935394130   -1.227492018019
 O   -1.246350242037    1.423728884279   -2.618520413170
 O   -1.026553720439    1.347354130229   -0.053878988234
 C   -4.018645727220    1.023376139301   -1.233426242098
 H   -3.850329760454    0.568430068599   -2.220346656410
 H   -3.745570889826    0.312835687527   -0.437657501839
 H   -5.073277587475    1.299610145975   -1.127210189672
 C    0.044101762555    4.034547917275   -1.475969432674
 H    0.701029261287    3.611828283582   -0.699558262738
 H    0.358600369644    3.681785765767   -2.469393562994
 H    0.094557591937    5.128105524585   -1.437691228996
