28

 P    1.706940669978   -2.152319913073    1.326682471813
 O    1.305790669978   -1.498679913073    2.664722471813
 O    1.086000669978   -1.422309913073    0.100082471813
 O    3.326730669978   -2.320219913073    1.151482471813
 O    1.389650669978   -3.758879913073    1.273692471813
 C    4.078080669978   -1.098329913073    1.279622471813
 H    3.909770669978   -0.643389913073    2.266542471813
 H    3.805010669978   -0.387799913073    0.483862471813
 H    5.132710669978   -1.374569913073    1.173412471813
 C    0.015340669978   -4.109499913073    1.522172471813
 H   -0.641589330022   -3.686769913073    0.745752471813
 H   -0.299159330022   -3.756729913073    2.515592471813
 H   -0.035109330022   -5.203049913073    1.483892471813
NA    0.029930669978    0.120820086927    1.702512471813
NA    0.174110669978   -0.378099913073   -1.543927528187
 P   -1.744464263874    2.199634786561   -1.355848744969
 O   -3.364258151721    2.367537627653   -1.180650189765
 O   -1.427177884644    3.806206499778   -1.302859543752
 O   -1.343319793980    1.545999989928   -2.693887938903
 O   -1.123523272383    1.469625235877   -0.129246513967
 C   -4.115615279164    1.145647244950   -1.308793767831
 H   -3.947299312398    0.690701174248   -2.295714182143
 H   -3.842540441770    0.435106793175   -0.513025027572
 H   -5.170247139419    1.421881251624   -1.202577715405
 C   -0.052867789389    4.156819022924   -1.551336958407
 H    0.604059709343    3.734099389230   -0.774925788471
 H    0.261630817700    3.804056871416   -2.544761088727
 H   -0.002411960007    5.250376630233   -1.513058754729
