28

 P    1.777833384747   -2.241710143754    1.381782329424
 O    1.376683384747   -1.588070143754    2.719822329424
 O    1.156893384747   -1.511700143754    0.155182329424
 O    3.397623384747   -2.409610143754    1.206582329424
 O    1.460543384747   -3.848270143754    1.328792329424
 C    4.148973384747   -1.187720143754    1.334722329424
 H    3.980663384747   -0.732780143754    2.321642329424
 H    3.875903384747   -0.477190143754    0.538962329424
 H    5.203603384747   -1.463960143754    1.228512329424
 C    0.086233384747   -4.198890143754    1.577272329424
 H   -0.570696615253   -3.776160143754    0.800852329424
 H   -0.228266615253   -3.846120143754    2.570692329424
 H    0.035783384747   -5.292440143754    1.538992329424
NA    0.100823384747    0.031429856246    1.757612329424
NA    0.245003384747   -0.467490143754   -1.488827670576
 P   -1.841433815818    2.321905892210   -1.431216270702
 O   -3.461227703665    2.489808733302   -1.256017715498
 O   -1.524147436588    3.928477605427   -1.378227069485
 O   -1.440289345924    1.668271095577   -2.769255464636
 O   -1.220492824327    1.591896341526   -0.204614039700
 C   -4.212584831108    1.267918350599   -1.384161293564
 H   -4.044268864342    0.812972279897   -2.371081707876
 H   -3.939509993714    0.557377898824   -0.588392553305
 H   -5.267216691363    1.544152357272   -1.277945241138
 C   -0.149837341333    4.279090128573   -1.626704484140
 H    0.507090157399    3.856370494879   -0.850293314204
 H    0.164661265756    3.926327977064   -2.620128614460
 H   -0.099381511951    5.372647735882   -1.588426280462
