28

 P    1.848726099517   -2.331100374436    1.436882187034
 O    1.447576099517   -1.677460374436    2.774922187034
 O    1.227786099517   -1.601090374436    0.210282187034
 O    3.468516099517   -2.499000374436    1.261682187034
 O    1.531436099517   -3.937660374436    1.383892187034
 C    4.219866099517   -1.277110374436    1.389822187034
 H    4.051556099517   -0.822170374436    2.376742187034
 H    3.946796099517   -0.566580374436    0.594062187034
 H    5.274496099517   -1.553350374436    1.283612187034
 C    0.157126099517   -4.288280374436    1.632372187034
 H   -0.499803900483   -3.865550374436    0.855952187034
 H   -0.157373900483   -3.935510374436    2.625792187034
 H    0.106676099517   -5.381830374436    1.594092187034
NA    0.171716099517   -0.057960374436    1.812712187034
NA    0.315896099517   -0.556880374436   -1.433727812966
 P   -1.938403367762    2.444176997859   -1.506583796434
 O   -3.558197255609    2.612079838951   -1.331385241231
 O   -1.621116988532    4.050748711076   -1.453594595218
 O   -1.537258897868    1.790542201225   -2.844622990369
 O   -1.317462376271    1.714167447175   -0.279981565433
 C   -4.309554383052    1.390189456248   -1.459528819297
 H   -4.141238416286    0.935243385546   -2.446449233608
 H   -4.036479545658    0.679649004473   -0.663760079038
 H   -5.364186243307    1.666423462921   -1.353312766871
 C   -0.246806893276    4.401361234222   -1.702072009873
 H    0.410120605455    3.978641600528   -0.925660839937
 H    0.067691713812    4.048599082713   -2.695496140193
 H   -0.196351063895    5.494918841531   -1.663793806195
