28

 P    1.872357004441   -2.360897117996    1.455248806238
 O    1.471207004441   -1.707257117996    2.793288806238
 O    1.251417004441   -1.630887117996    0.228648806238
 O    3.492147004441   -2.528797117996    1.280048806238
 O    1.555067004441   -3.967457117996    1.402258806238
 C    4.243497004441   -1.306907117996    1.408188806238
 H    4.075187004441   -0.851967117996    2.395108806238
 H    3.970427004441   -0.596377117996    0.612428806238
 H    5.298127004441   -1.583147117996    1.301978806238
 C    0.180757004441   -4.318077117996    1.650738806238
 H   -0.476172995559   -3.895347117996    0.874318806238
 H   -0.133742995559   -3.965307117996    2.644158806238
 H    0.130307004441   -5.411627117996    1.612458806238
NA    0.195347004441   -0.087757117996    1.831078806238
NA    0.339527004441   -0.586677117996   -1.415361193762
 P   -1.970726551743    2.484934033075   -1.531706305012
 O   -3.590520439590    2.652836874167   -1.356507749809
 O   -1.653440172513    4.091505746292   -1.478717103796
 O   -1.569582081850    1.831299236442   -2.869745498946
 O   -1.349785560252    1.754924482391   -0.305104074011
 C   -4.341877567033    1.430946491464   -1.484651327875
 H   -4.173561600267    0.976000420762   -2.471571742186
 H   -4.068802729639    0.720406039689   -0.688882587616
 H   -5.396509427288    1.707180498137   -1.378435275448
 C   -0.279130077258    4.442118269438   -1.727194518450
 H    0.377797421474    4.019398635744   -0.950783348515
 H    0.035368529831    4.089356117930   -2.720618648770
 H   -0.228674247876    5.535675876747   -1.688916314772
