28

 P    2.085035148750   -2.629067810041    1.620548379071
 O    1.683885148750   -1.975427810041    2.958588379071
 O    1.464095148750   -1.899057810041    0.393948379071
 O    3.704825148750   -2.796967810041    1.445348379071
 O    1.767745148750   -4.235627810041    1.567558379071
 C    4.456175148750   -1.575077810041    1.573488379071
 H    4.287865148750   -1.120137810041    2.560408379071
 H    4.183105148750   -0.864547810041    0.777728379071
 H    5.510805148750   -1.851317810041    1.467278379071
 C    0.393435148750   -4.586247810041    1.816038379071
 H   -0.263494851250   -4.163517810041    1.039618379071
 H    0.078935148750   -4.233477810041    2.809458379071
 H    0.342985148750   -5.679797810041    1.777758379071
NA    0.408025148750   -0.355927810041    1.996378379071
NA    0.552205148750   -0.854847810041   -1.250061620929
 P   -2.261635207575    2.851747350022   -1.757808882211
 O   -3.881429095422    3.019650191113   -1.582610327008
 O   -1.944348828345    4.458319063239   -1.704819680995
 O   -1.860490737681    2.198112553388   -3.095848076145
 O   -1.640694216084    2.121737799338   -0.531206651210
 C   -4.632786222865    1.797759808411   -1.710753905074
 H   -4.464470256099    1.342813737708   -2.697674319385
 H   -4.359711385471    1.087219356636   -0.914985164815
 H   -5.687418083120    2.073993815084   -1.604537852647
 C   -0.570038733090    4.808931586384   -1.953297095649
 H    0.086888765642    4.386211952691   -1.176885925714
 H   -0.255540126001    4.456169434876   -2.946721225969
 H   -0.519582903708    5.902489193694   -1.915018891971
