28

 P    2.132296958597   -2.688661297162    1.657281617478
 O    1.731146958597   -2.035021297162    2.995321617478
 O    1.511356958597   -1.958651297162    0.430681617478
 O    3.752086958597   -2.856561297162    1.482081617478
 O    1.815006958597   -4.295221297162    1.604291617478
 C    4.503436958597   -1.634671297162    1.610221617478
 H    4.335126958597   -1.179731297162    2.597141617478
 H    4.230366958597   -0.924141297162    0.814461617478
 H    5.558066958597   -1.910911297162    1.504011617478
 C    0.440696958597   -4.645841297162    1.852771617478
 H   -0.216233041403   -4.223111297162    1.076351617478
 H    0.126196958597   -4.293071297162    2.846191617478
 H    0.390246958597   -5.739391297162    1.814491617478
NA    0.455286958597   -0.415521297162    2.033111617478
NA    0.599466958597   -0.914441297162   -1.213328382522
 P   -2.326281575537    2.933261420454   -1.808053899366
 O   -3.946075463385    3.101164261546   -1.632855344163
 O   -2.008995196307    4.539833133671   -1.755064698150
 O   -1.925137105644    2.279626623821   -3.146093093300
 O   -1.705340584047    2.203251869770   -0.581451668365
 C   -4.697432590828    1.879273878843   -1.760998922229
 H   -4.529116624061    1.424327808141   -2.747919336540
 H   -4.424357753433    1.168733427068   -0.965230181970
 H   -5.752064451082    2.155507885516   -1.654782869802
 C   -0.634685101052    4.890445656817   -2.003542112804
 H    0.022242397679    4.467726023123   -1.227130942869
 H   -0.320186493964    4.537683505309   -2.996966243125
 H   -0.584229271671    5.984003264126   -1.965263909127
