28

 P    2.203189673366   -2.778051527843    1.712381475089
 O    1.802039673366   -2.124411527843    3.050421475089
 O    1.582249673366   -2.048041527843    0.485781475089
 O    3.822979673366   -2.945951527843    1.537181475089
 O    1.885899673366   -4.384611527843    1.659391475089
 C    4.574329673366   -1.724061527843    1.665321475089
 H    4.406019673366   -1.269121527843    2.652241475089
 H    4.301259673366   -1.013531527843    0.869561475089
 H    5.628959673366   -2.000301527843    1.559111475089
 C    0.511589673366   -4.735231527843    1.907871475089
 H   -0.145340326634   -4.312501527843    1.131451475089
 H    0.197089673366   -4.382461527843    2.901291475089
 H    0.461139673366   -5.828781527843    1.869591475089
NA    0.526179673366   -0.504911527843    2.088211475089
NA    0.670359673366   -1.003831527843   -1.158228524911
 P   -2.423251127481    3.055532526103   -1.883421425099
 O   -4.043045015329    3.223435367195   -1.708222869896
 O   -2.105964748251    4.662104239320   -1.830432223883
 O   -2.022106657588    2.401897729469   -3.221460619033
 O   -1.802310135991    2.325522975419   -0.656819194098
 C   -4.794402142772    2.001544984492   -1.836366447962
 H   -4.626086176005    1.546598913790   -2.823286862273
 H   -4.521327305377    1.291004532717   -1.040597707703
 H   -5.849034003026    2.277778991165   -1.730150395535
 C   -0.731654652996    5.012716762466   -2.078909638537
 H   -0.074727154265    4.589997128772   -1.302498468602
 H   -0.417156045908    4.659954610957   -3.072333768858
 H   -0.681198823615    6.106274369775   -2.040631434859
