28

 P    2.321344197983   -2.927035245646    1.804214571107
 O    1.920194197983   -2.273395245646    3.142254571107
 O    1.700404197983   -2.197025245646    0.577614571107
 O    3.941134197983   -3.094935245646    1.629014571107
 O    2.004054197983   -4.533595245646    1.751224571107
 C    4.692484197983   -1.873045245646    1.757154571107
 H    4.524174197983   -1.418105245646    2.744074571107
 H    4.419414197983   -1.162515245646    0.961394571107
 H    5.747114197983   -2.149285245646    1.650944571107
 C    0.629744197983   -4.884215245646    1.999704571107
 H   -0.027185802017   -4.461485245646    1.223284571107
 H    0.315244197983   -4.531445245646    2.993124571107
 H    0.579294197983   -5.977765245646    1.961424571107
NA    0.644334197983   -0.653895245646    2.180044571107
NA    0.788514197983   -1.152815245646   -1.066395428893
 P   -2.584867047388    3.259317702184   -2.009033967988
 O   -4.204660935235    3.427220543276   -1.833835412784
 O   -2.267580668158    4.865889415401   -1.956044766771
 O   -2.183722577495    2.605682905551   -3.347073161922
 O   -1.963926055897    2.529308151501   -0.782431736986
 C   -4.956018062678    2.205330160573   -1.961978990850
 H   -4.787702095912    1.750384089871   -2.948899405162
 H   -4.682943225284    1.494789708798   -1.166210250591
 H   -6.010649922933    2.481564167247   -1.855762938424
 C   -0.893270572903    5.216501938547   -2.204522181426
 H   -0.236343074171    4.793782304853   -1.428111011490
 H   -0.578771965814    4.863739787039   -3.197946311746
 H   -0.842814743521    6.310059545857   -2.166243977748
