28

 P    2.463129627522   -3.105815707009    1.914414286328
 O    2.061979627522   -2.452175707009    3.252454286328
 O    1.842189627522   -2.375805707009    0.687814286328
 O    4.082919627522   -3.273715707009    1.739214286328
 O    2.145839627522   -4.712375707009    1.861424286328
 C    4.834269627522   -2.051825707009    1.867354286328
 H    4.665959627522   -1.596885707009    2.854274286328
 H    4.561199627522   -1.341295707009    1.071594286328
 H    5.888899627522   -2.328065707009    1.761144286328
 C    0.771529627522   -5.062995707009    2.109904286328
 H    0.114599627522   -4.640265707009    1.333484286328
 H    0.457029627522   -4.710225707009    3.103324286328
 H    0.721079627522   -6.156545707009    2.071624286328
NA    0.786119627522   -0.832675707009    2.290244286328
NA    0.930299627522   -1.331595707009   -0.956195713672
 P   -2.778806151276    3.503859913482   -2.159769019453
 O   -4.398600039123    3.671762754574   -1.984570464250
 O   -2.461519772046    5.110431626699   -2.106779818237
 O   -2.377661681382    2.850225116848   -3.497808213388
 O   -2.157865159785    2.773850362798   -0.933166788452
 C   -5.149957166566    2.449872371871   -2.112714042316
 H   -4.981641199800    1.994926301169   -3.099634456627
 H   -4.876882329172    1.739331920096   -1.316945302057
 H   -6.204589026821    2.726106378544   -2.006497989890
 C   -1.087209676791    5.461044149845   -2.355257232891
 H   -0.430282178059    5.038324516151   -1.578846062956
 H   -0.772711069702    5.108281998336   -3.348681363212
 H   -1.036753847409    6.554601757154   -2.316979029214
