28

 P    2.557653247216   -3.225002681251    1.987880763143
 O    2.156503247216   -2.571362681251    3.325920763143
 O    1.936713247216   -2.494992681251    0.761280763143
 O    4.177443247216   -3.392902681251    1.812680763143
 O    2.240363247216   -4.831562681251    1.934890763143
 C    4.928793247216   -2.171012681251    1.940820763143
 H    4.760483247216   -1.716072681251    2.927740763143
 H    4.655723247216   -1.460482681251    1.145060763143
 H    5.983423247216   -2.447252681251    1.834610763143
 C    0.866053247216   -5.182182681251    2.183370763143
 H    0.209123247216   -4.759452681251    1.406950763143
 H    0.551553247216   -4.829412681251    3.176790763143
 H    0.815603247216   -6.275732681251    2.145090763143
NA    0.880643247216   -0.951862681251    2.363710763143
NA    1.024823247216   -1.450782681251   -0.882729236857
 P   -2.908098887201    3.666888054347   -2.260259053764
 O   -4.527892775048    3.834790895439   -2.085060498561
 O   -2.590812507971    5.273459767564   -2.207269852548
 O   -2.506954417308    3.013253257713   -3.598298247698
 O   -2.287157895710    2.936878503663   -1.033656822763
 C   -5.279249902491    2.612900512736   -2.213204076627
 H   -5.110933935725    2.157954442034   -3.200124490938
 H   -5.006175065097    1.902360060961   -1.417435336368
 H   -6.333881762746    2.889134519409   -2.106988024200
 C   -1.216502412716    5.624072290710   -2.455747267202
 H   -0.559574913984    5.201352657016   -1.679336097267
 H   -0.902003805627    5.271310139201   -3.449171397522
 H   -1.166046583334    6.717629898019   -2.417469063524
