28

 P    2.675807771832   -3.373986399054    2.079713859161
 O    2.274657771832   -2.720346399054    3.417753859161
 O    2.054867771832   -2.643976399054    0.853113859161
 O    4.295597771832   -3.541886399054    1.904513859161
 O    2.358517771832   -4.980546399054    2.026723859161
 C    5.046947771832   -2.319996399054    2.032653859161
 H    4.878637771832   -1.865056399054    3.019573859161
 H    4.773877771832   -1.609466399054    1.236893859161
 H    6.101577771832   -2.596236399054    1.926443859161
 C    0.984207771832   -5.331166399054    2.275203859161
 H    0.327277771832   -4.908436399054    1.498783859161
 H    0.669707771832   -4.978396399054    3.268623859161
 H    0.933757771832   -6.424716399054    2.236923859161
NA    0.998797771832   -1.100846399054    2.455543859161
NA    1.142977771832   -1.599766399054   -0.790896140839
 P   -3.069714807108    3.870673230428   -2.385871596652
 O   -4.689508694955    4.038576071520   -2.210673041449
 O   -2.752428427878    5.477244943645   -2.332882395436
 O   -2.668570337214    3.217038433795   -3.723910790586
 O   -2.448773815617    3.140663679745   -1.159269365651
 C   -5.440865822398    2.816685688817   -2.338816619515
 H   -5.272549855632    2.361739618115   -3.325737033826
 H   -5.167790985004    2.106145237042   -1.543047879256
 H   -6.495497682652    3.092919695491   -2.232600567088
 C   -1.378118332622    5.827857466791   -2.581359810090
 H   -0.721190833891    5.405137833098   -1.804948640155
 H   -1.063619725534    5.475095315283   -3.574783940411
 H   -1.327662503241    6.921415074101   -2.543081606413
