28

 P    2.817593201372   -3.552766860417    2.189913574382
 O    2.416443201372   -2.899126860417    3.527953574382
 O    2.196653201372   -2.822756860417    0.963313574382
 O    4.437383201372   -3.720666860417    2.014713574382
 O    2.500303201372   -5.159326860417    2.136923574382
 C    5.188733201372   -2.498776860417    2.142853574382
 H    5.020423201372   -2.043836860417    3.129773574382
 H    4.915663201372   -1.788246860417    1.347093574382
 H    6.243363201372   -2.775016860417    2.036643574382
 C    1.125993201372   -5.509946860417    2.385403574382
 H    0.469063201372   -5.087216860417    1.608983574382
 H    0.811493201372   -5.157176860417    3.378823574382
 H    1.075543201372   -6.603496860417    2.347123574382
NA    1.140583201372   -1.279626860417    2.565743574382
NA    1.284763201372   -1.778546860417   -0.680696425618
 P   -3.263653910995    4.115215441726   -2.536606648118
 O   -4.883447798843    4.283118282818   -2.361408092915
 O   -2.946367531765    5.721787154943   -2.483617446902
 O   -2.862509441102    3.461580645092   -3.874645842052
 O   -2.642712919505    3.385205891042   -1.310004417117
 C   -5.634804926286    3.061227900115   -2.489551670981
 H   -5.466488959519    2.606281829413   -3.476472085292
 H   -5.361730088891    2.350687448340   -1.693782930722
 H   -6.689436786540    3.337461906788   -2.383335618554
 C   -1.572057436510    6.072399678089   -2.732094861556
 H   -0.915129937779    5.649680044395   -1.955683691621
 H   -1.257558829422    5.719637526580   -3.725518991877
 H   -1.521601607129    7.165957285398   -2.693816657878
