28

 P    2.841224106295   -3.582563603977    2.208280193586
 O    2.440074106295   -2.928923603977    3.546320193586
 O    2.220284106295   -2.852553603977    0.981680193586
 O    4.461014106295   -3.750463603977    2.033080193586
 O    2.523934106295   -5.189123603977    2.155290193586
 C    5.212364106295   -2.528573603977    2.161220193586
 H    5.044054106295   -2.073633603977    3.148140193586
 H    4.939294106295   -1.818043603977    1.365460193586
 H    6.266994106295   -2.804813603977    2.055010193586
 C    1.149624106295   -5.539743603977    2.403770193586
 H    0.492694106295   -5.117013603977    1.627350193586
 H    0.835124106295   -5.186973603977    3.397190193586
 H    1.099174106295   -6.633293603977    2.365490193586
NA    1.164214106295   -1.309423603977    2.584110193586
NA    1.308394106295   -1.808343603977   -0.662329806414
 P   -3.295977094977    4.155972476942   -2.561729156696
 O   -4.915770982824    4.323875318034   -2.386530601492
 O   -2.978690715747    5.762544190159   -2.508739955480
 O   -2.894832625083    3.502337680309   -3.899768350630
 O   -2.675036103486    3.425962926258   -1.335126925695
 C   -5.667128110267    3.101984935331   -2.514674179559
 H   -5.498812143501    2.647038864629   -3.501594593870
 H   -5.394053272873    2.391444483556   -1.718905439300
 H   -6.721759970522    3.378218942005   -2.408458127132
 C   -1.604380620492    6.113156713305   -2.757217370134
 H   -0.947453121760    5.690437079611   -1.980806200198
 H   -1.289882013403    5.760394561797   -3.750641500454
 H   -1.553924791110    7.206714320615   -2.718939166456
