28

 P    2.888485916141   -3.642157091098    2.245013431993
 O    2.487335916141   -2.988517091098    3.583053431993
 O    2.267545916141   -2.912147091098    1.018413431993
 O    4.508275916141   -3.810057091098    2.069813431993
 O    2.571195916141   -5.248717091098    2.192023431993
 C    5.259625916141   -2.588167091098    2.197953431993
 H    5.091315916141   -2.133227091098    3.184873431993
 H    4.986555916141   -1.877637091098    1.402193431993
 H    6.314255916141   -2.864407091098    2.091743431993
 C    1.196885916141   -5.599337091098    2.440503431993
 H    0.539955916141   -5.176607091098    1.664083431993
 H    0.882385916141   -5.246567091098    3.433923431993
 H    1.146435916141   -6.692887091098    2.402223431993
NA    1.211475916141   -1.369017091098    2.620843431993
NA    1.355655916141   -1.867937091098   -0.625596568007
 P   -3.360623462939    4.237486547375   -2.611974173851
 O   -4.980417350787    4.405389388466   -2.436775618648
 O   -3.043337083709    5.844058260592   -2.558984972635
 O   -2.959478993046    3.583851750741   -3.950013367785
 O   -2.739682471449    3.507476996691   -1.385371942850
 C   -5.731774478230    3.183499005764   -2.564919196714
 H   -5.563458511463    2.728552935061   -3.551839611025
 H   -5.458699640835    2.472958553989   -1.769150456455
 H   -6.786406338484    3.459733012437   -2.458703144287
 C   -1.669026988454    6.194670783737   -2.807462387289
 H   -1.012099489723    5.771951150044   -2.031051217354
 H   -1.354528381366    5.841908632229   -3.800886517610
 H   -1.618571159073    7.288228391047   -2.769184183611
