28

 P    3.006640440758   -3.791140808901    2.336846528011
 O    2.605490440758   -3.137500808901    3.674886528011
 O    2.385700440758   -3.061130808901    1.110246528011
 O    4.626430440758   -3.959040808901    2.161646528011
 O    2.689350440758   -5.397700808901    2.283856528011
 C    5.377780440758   -2.737150808901    2.289786528011
 H    5.209470440758   -2.282210808901    3.276706528011
 H    5.104710440758   -2.026620808901    1.494026528011
 H    6.432410440758   -3.013390808901    2.183576528011
 C    1.315040440758   -5.748320808901    2.532336528011
 H    0.658110440758   -5.325590808901    1.755916528011
 H    1.000540440758   -5.395550808901    3.525756528011
 H    1.264590440758   -6.841870808901    2.494056528011
NA    1.329630440758   -1.518000808901    2.712676528011
NA    1.473810440758   -2.016920808901   -0.533763471989
 P   -3.522239382846    4.441271723456   -2.737586716739
 O   -5.142033270693    4.609174564548   -2.562388161536
 O   -3.204953003616    6.047843436673   -2.684597515523
 O   -3.121094912953    3.787636926823   -4.075625910674
 O   -2.901298391355    3.711262172772   -1.510984485738
 C   -5.893390398136    3.387284181845   -2.690531739602
 H   -5.725074431370    2.932338111143   -3.677452153913
 H   -5.620315560742    2.676743730070   -1.894762999343
 H   -6.948022258391    3.663518188519   -2.584315687176
 C   -1.830642908361    6.398455959819   -2.933074930178
 H   -1.173715409629    5.975736326125   -2.156663760242
 H   -1.516144301272    6.045693808311   -3.926499060498
 H   -1.780187078979    7.492013567128   -2.894796726500
