28

 P    3.030271345681   -3.820937552461    2.355213147215
 O    2.629121345681   -3.167297552461    3.693253147215
 O    2.409331345681   -3.090927552461    1.128613147215
 O    4.650061345681   -3.988837552461    2.180013147215
 O    2.712981345681   -5.427497552461    2.302223147215
 C    5.401411345681   -2.766947552461    2.308153147215
 H    5.233101345681   -2.312007552461    3.295073147215
 H    5.128341345681   -2.056417552461    1.512393147215
 H    6.456041345681   -3.043187552461    2.201943147215
 C    1.338671345681   -5.778117552461    2.550703147215
 H    0.681741345681   -5.355387552461    1.774283147215
 H    1.024171345681   -5.425347552461    3.544123147215
 H    1.288221345681   -6.871667552461    2.512423147215
NA    1.353261345681   -1.547797552461    2.731043147215
NA    1.497441345681   -2.046717552461   -0.515396852785
 P   -3.554562566827    4.482028758672   -2.762709225317
 O   -5.174356454675    4.649931599764   -2.587510670114
 O   -3.237276187597    6.088600471890   -2.709720024101
 O   -3.153418096934    3.828393962039   -4.100748419251
 O   -2.933621575337    3.752019207989   -1.536106994316
 C   -5.925713582117    3.428041217061   -2.715654248180
 H   -5.757397615351    2.973095146359   -3.702574662491
 H   -5.652638744723    2.717500765287   -1.919885507921
 H   -6.980345442372    3.704275223735   -2.609438195753
 C   -1.862966092342    6.439212995035   -2.958197438755
 H   -1.206038593611    6.016493361342   -2.181786268820
 H   -1.548467485254    6.086450843527   -3.951621569075
 H   -1.812510262961    7.532770602345   -2.919919235077
