28

 P    3.077533155528   -3.880531039582    2.391946385622
 O    2.676383155528   -3.226891039582    3.729986385622
 O    2.456593155528   -3.150521039582    1.165346385622
 O    4.697323155528   -4.048431039582    2.216746385622
 O    2.760243155528   -5.487091039582    2.338956385622
 C    5.448673155528   -2.826541039582    2.344886385622
 H    5.280363155528   -2.371601039582    3.331806385622
 H    5.175603155528   -2.116011039582    1.549126385622
 H    6.503303155528   -3.102781039582    2.238676385622
 C    1.385933155528   -5.837711039582    2.587436385622
 H    0.729003155528   -5.414981039582    1.811016385622
 H    1.071433155528   -5.484941039582    3.580856385622
 H    1.335483155528   -6.931261039582    2.549156385622
NA    1.400523155528   -1.607391039582    2.767776385622
NA    1.544703155528   -2.106311039582   -0.478663614378
 P   -3.619208934790    4.563542829105   -2.812954242472
 O   -5.239002822637    4.731445670197   -2.637755687269
 O   -3.301922555560    6.170114542322   -2.759965041256
 O   -3.218064464896    3.909908032471   -4.150993436407
 O   -2.998267943299    3.833533278421   -1.586352011471
 C   -5.990359950080    3.509555287494   -2.765899265335
 H   -5.822043983314    3.054609216792   -3.752819679646
 H   -5.717285112686    2.799014835719   -1.970130525076
 H   -7.044991810335    3.785789294167   -2.659683212909
 C   -1.927612460305    6.520727065468   -3.008442455910
 H   -1.270684961573    6.098007431774   -2.232031285975
 H   -1.613113853216    6.167964913959   -4.001866586231
 H   -1.877156630923    7.614284672777   -2.970164252233
