28

 P    3.124794965374   -3.940124526703    2.428679624029
 O    2.723644965374   -3.286484526703    3.766719624029
 O    2.503854965374   -3.210114526703    1.202079624029
 O    4.744584965374   -4.108024526703    2.253479624029
 O    2.807504965374   -5.546684526703    2.375689624029
 C    5.495934965374   -2.886134526703    2.381619624029
 H    5.327624965374   -2.431194526703    3.368539624029
 H    5.222864965374   -2.175604526703    1.585859624029
 H    6.550564965374   -3.162374526703    2.275409624029
 C    1.433194965374   -5.897304526703    2.624169624029
 H    0.776264965374   -5.474574526703    1.847749624029
 H    1.118694965374   -5.544534526703    3.617589624029
 H    1.382744965374   -6.990854526703    2.585889624029
NA    1.447784965374   -1.666984526703    2.804509624029
NA    1.591964965374   -2.165904526703   -0.441930375971
 P   -3.683855302752    4.645056899537   -2.863199259628
 O   -5.303649190600    4.812959740629   -2.688000704424
 O   -3.366568923522    6.251628612755   -2.810210058412
 O   -3.282710832859    3.991422102904   -4.201238453562
 O   -3.062914311262    3.915047348854   -1.636597028626
 C   -6.055006318043    3.591069357927   -2.816144282491
 H   -5.886690351276    3.136123287224   -3.803064696802
 H   -5.781931480648    2.880528906152   -2.020375542231
 H   -7.109638178297    3.867303364600   -2.709928230064
 C   -1.992258828267    6.602241135900   -3.058687473066
 H   -1.335331329536    6.179521502207   -2.282276303130
 H   -1.677760221179    6.249478984392   -4.052111603386
 H   -1.941802998886    7.695798743210   -3.020409269388
