28

 P    3.195687680144   -4.029514757385    2.483779481640
 O    2.794537680144   -3.375874757385    3.821819481640
 O    2.574747680144   -3.299504757385    1.257179481640
 O    4.815477680144   -4.197414757385    2.308579481640
 O    2.878397680144   -5.636074757385    2.430789481640
 C    5.566827680144   -2.975524757385    2.436719481640
 H    5.398517680144   -2.520584757385    3.423639481640
 H    5.293757680144   -2.264994757385    1.640959481640
 H    6.621457680144   -3.251764757385    2.330509481640
 C    1.504087680144   -5.986694757385    2.679269481640
 H    0.847157680144   -5.563964757385    1.902849481640
 H    1.189587680144   -5.633924757385    3.672689481640
 H    1.453637680144   -7.080244757385    2.640989481640
NA    1.518677680144   -1.756374757385    2.859609481640
NA    1.662857680144   -2.255294757385   -0.386830518360
 P   -3.780824854696    4.767328005186   -2.938566785361
 O   -5.400618742544    4.935230846278   -2.763368230157
 O   -3.463538475466    6.373899718403   -2.885577584145
 O   -3.379680384803    4.113693208553   -4.276605979295
 O   -3.159883863206    4.037318454503   -1.711964554359
 C   -6.151975869987    3.713340463575   -2.891511808224
 H   -5.983659903220    3.258394392873   -3.878432222535
 H   -5.878901032592    3.002800011800   -2.095743067964
 H   -7.206607730241    3.989574470249   -2.785295755797
 C   -2.089228380211    6.724512241549   -3.134054998799
 H   -1.432300881480    6.301792607856   -2.357643828863
 H   -1.774729773123    6.371750090041   -4.127479129119
 H   -2.038772550830    7.818069848859   -3.095776795121
