28

 P    3.219318585067   -4.059311500945    2.502146100843
 O    2.818168585067   -3.405671500945    3.840186100843
 O    2.598378585067   -3.329301500945    1.275546100843
 O    4.839108585067   -4.227211500945    2.326946100843
 O    2.902028585067   -5.665871500945    2.449156100843
 C    5.590458585067   -3.005321500945    2.455086100843
 H    5.422148585067   -2.550381500945    3.442006100843
 H    5.317388585067   -2.294791500945    1.659326100843
 H    6.645088585067   -3.281561500945    2.348876100843
 C    1.527718585067   -6.016491500945    2.697636100843
 H    0.870788585067   -5.593761500945    1.921216100843
 H    1.213218585067   -5.663721500945    3.691056100843
 H    1.477268585067   -7.110041500945    2.659356100843
NA    1.542308585067   -1.786171500945    2.877976100843
NA    1.686488585067   -2.285091500945   -0.368463899157
 P   -3.813148038678    4.808085040403   -2.963689293938
 O   -5.432941926525    4.975987881494   -2.788490738735
 O   -3.495861659448    6.414656753620   -2.910700092722
 O   -3.412003568784    4.154450243769   -4.301728487873
 O   -3.192207047187    4.078075489719   -1.737087062937
 C   -6.184299053968    3.754097498792   -2.916634316801
 H   -6.015983087202    3.299151428089   -3.903554731112
 H   -5.911224216574    3.043557047017   -2.120865576542
 H   -7.238930914223    4.030331505465   -2.810418264374
 C   -2.121551564192    6.765269276765   -3.159177507376
 H   -1.464624065461    6.342549643072   -2.382766337441
 H   -1.807052957104    6.412507125257   -4.152601637697
 H   -2.071095734811    7.858826884075   -3.120899303699
