28

 P    3.242949489991   -4.089108244506    2.520512720047
 O    2.841799489991   -3.435468244506    3.858552720047
 O    2.622009489991   -3.359098244506    1.293912720047
 O    4.862739489991   -4.257008244506    2.345312720047
 O    2.925659489991   -5.695668244506    2.467522720047
 C    5.614089489991   -3.035118244506    2.473452720047
 H    5.445779489991   -2.580178244506    3.460372720047
 H    5.341019489991   -2.324588244506    1.677692720047
 H    6.668719489991   -3.311358244506    2.367242720047
 C    1.551349489991   -6.046288244506    2.716002720047
 H    0.894419489991   -5.623558244506    1.939582720047
 H    1.236849489991   -5.693518244506    3.709422720047
 H    1.500899489991   -7.139838244506    2.677722720047
NA    1.565939489991   -1.815968244506    2.896342720047
NA    1.710119489991   -2.314888244506   -0.350097279953
 P   -3.845471222659    4.848842075619   -2.988811802516
 O   -5.465265110506    5.016744916711   -2.813613247313
 O   -3.528184843429    6.455413788836   -2.935822601300
 O   -3.444326752766    4.195207278985   -4.326850996450
 O   -3.224530231168    4.118832524935   -1.762209571515
 C   -6.216622237949    3.794854534008   -2.941756825379
 H   -6.048306271183    3.339908463306   -3.928677239690
 H   -5.943547400555    3.084314082233   -2.145988085120
 H   -7.271254098204    4.071088540681   -2.835540772952
 C   -2.153874748174    6.806026311982   -3.184300015954
 H   -1.496947249442    6.383306678288   -2.407888846019
 H   -1.839376141085    6.453264160473   -4.177724146274
 H   -2.103418918792    7.899583919291   -3.146021812276
