13

 C    1.419959863817    1.354972844346    0.502678489603
 H    0.953339863817    2.347139844346    0.502678489603
 H    2.057108863817    1.250555844346    1.395184489603
 H    2.057108863817    1.250555844346   -0.389827510397
 C    0.321784863817    0.303887844346    0.502678489603
 O   -0.884378136183    0.581941844346    0.502678489603
 N    0.752713863817   -0.996261155654    0.502678489603
 H    1.744890863817   -1.190162155654    0.502678489603
 C   -0.205621136183   -2.094789155654    0.502678489603
 H   -0.849686136183   -2.046310155654    1.393386489603
 H   -0.849686136183   -2.046310155654   -0.388029510397
 H    0.347604863817   -3.043214155654    0.502678489603
NA   -0.884378136183    0.581941844346   -1.597321510397
