13

 C    1.419959863817    1.354972844346    1.795280320009
 H    0.953339863817    2.347139844346    1.795280320009
 H    2.057108863817    1.250555844346    2.687786320009
 H    2.057108863817    1.250555844346    0.902774320009
 C    0.321784863817    0.303887844346    1.795280320009
 O   -0.884378136183    0.581941844346    1.795280320009
 N    0.752713863817   -0.996261155654    1.795280320009
 H    1.744890863817   -1.190162155654    1.795280320009
 C   -0.205621136183   -2.094789155654    1.795280320009
 H   -0.849686136183   -2.046310155654    2.685988320009
 H   -0.849686136183   -2.046310155654    0.904572320009
 H    0.347604863817   -3.043214155654    1.795280320009
NA   -0.884378136183    0.581941844346   -5.704719679991
