13

 C    1.419959863817    1.354972844346    1.938902745610
 H    0.953339863817    2.347139844346    1.938902745610
 H    2.057108863817    1.250555844346    2.831408745610
 H    2.057108863817    1.250555844346    1.046396745610
 C    0.321784863817    0.303887844346    1.938902745610
 O   -0.884378136183    0.581941844346    1.938902745610
 N    0.752713863817   -0.996261155654    1.938902745610
 H    1.744890863817   -1.190162155654    1.938902745610
 C   -0.205621136183   -2.094789155654    1.938902745610
 H   -0.849686136183   -2.046310155654    2.829610745610
 H   -0.849686136183   -2.046310155654    1.048194745610
 H    0.347604863817   -3.043214155654    1.938902745610
NA   -0.884378136183    0.581941844346   -6.161097254390
