13

 C    1.419959863817    1.354972844346    2.154336384011
 H    0.953339863817    2.347139844346    2.154336384011
 H    2.057108863817    1.250555844346    3.046842384011
 H    2.057108863817    1.250555844346    1.261830384011
 C    0.321784863817    0.303887844346    2.154336384011
 O   -0.884378136183    0.581941844346    2.154336384011
 N    0.752713863817   -0.996261155654    2.154336384011
 H    1.744890863817   -1.190162155654    2.154336384011
 C   -0.205621136183   -2.094789155654    2.154336384011
 H   -0.849686136183   -2.046310155654    3.045044384011
 H   -0.849686136183   -2.046310155654    1.263628384011
 H    0.347604863817   -3.043214155654    2.154336384011
NA   -0.884378136183    0.581941844346   -6.845663615989
