7

 C   -0.002966884371    1.307118929306   -0.515683499171
 O   -0.002966884371   -0.127767070694   -0.515683499171
 H    0.916043115629   -0.424568070694   -0.515683499171
 H   -1.056285884371    1.615107929306   -0.515683499171
 H    0.485699115629    1.718051929306    0.383756500829
 H    0.485699115629    1.718051929306   -1.415123499171
 K   -0.019366781915   -0.469787214020    0.423866001877
