7

 C   -0.002066755475    1.325891132803   -0.567251849088
 O   -0.002066755475   -0.108994867197   -0.567251849088
 H    0.916943244525   -0.405795867197   -0.567251849088
 H   -1.055385755475    1.633880132803   -0.567251849088
 H    0.486599244525    1.736824132803    0.332188150912
 H    0.486599244525    1.736824132803   -1.466691849088
 K   -0.020106642774   -0.485217024855    0.466252602065
