7

 C   -0.001166626579    1.344663336301   -0.618820199005
 O   -0.001166626579   -0.090222663699   -0.618820199005
 H    0.917843373421   -0.387023663699   -0.618820199005
 H   -1.054485626579    1.652652336301   -0.618820199005
 H    0.487499373421    1.755596336301    0.280619800995
 H    0.487499373421    1.755596336301   -1.518260199005
 K   -0.020846503632   -0.500646835690    0.508639202253
