7

 C   -0.000266497683    1.363435539798   -0.670388548922
 O   -0.000266497683   -0.071450460202   -0.670388548922
 H    0.918743502317   -0.368251460202   -0.670388548922
 H   -1.053585497683    1.671424539798   -0.670388548922
 H    0.488399502317    1.774368539798    0.229051451078
 H    0.488399502317    1.774368539798   -1.569828548922
 K   -0.021586364490   -0.516076646525    0.551025802440
