7

 C    0.001533760109    1.400979946793   -0.773525248757
 O    0.001533760109   -0.033906053207   -0.773525248757
 H    0.920543760109   -0.330707053207   -0.773525248757
 H   -1.051785239891    1.708968946793   -0.773525248757
 H    0.490199760109    1.811912946793    0.125914751243
 H    0.490199760109    1.811912946793   -1.672965248757
 K   -0.023066086207   -0.546936268195    0.635799002816
