7

 C    0.003334017901    1.438524353789   -0.876661948591
 O    0.003334017901    0.003638353789   -0.876661948591
 H    0.922344017901   -0.293162646211   -0.876661948591
 H   -1.049984982099    1.746513353789   -0.876661948591
 H    0.492000017901    1.849457353789    0.022778051409
 H    0.492000017901    1.849457353789   -1.776101948591
 K   -0.024545807924   -0.577795889865    0.720572203191
