7

 C    0.005134275693    1.476068760784   -0.979798648425
 O    0.005134275693    0.041182760784   -0.979798648425
 H    0.924144275693   -0.255618239216   -0.979798648425
 H   -1.048184724307    1.784057760784   -0.979798648425
 H    0.493800275693    1.887001760784   -0.080358648425
 H    0.493800275693    1.887001760784   -1.879238648425
 K   -0.026025529641   -0.608655511535    0.805345403567
