7

 C    0.012335306861    1.626246388764   -1.392345447762
 O    0.012335306861    0.191360388764   -1.392345447762
 H    0.931345306861   -0.105440611236   -1.392345447762
 H   -1.040983693139    1.934235388764   -1.392345447762
 H    0.501001306861    2.037179388764   -0.492905447762
 H    0.501001306861    2.037179388764   -2.291785447762
 K   -0.031944416508   -0.732093998215    1.144438205068
