7

 C    0.013235435757    1.645018592262   -1.443913797679
 O    0.013235435757    0.210132592262   -1.443913797679
 H    0.932245435757   -0.086668407738   -1.443913797679
 H   -1.040083564243    1.953007592262   -1.443913797679
 H    0.501901435757    2.055951592262   -0.544473797679
 H    0.501901435757    2.055951592262   -2.343353797679
 K   -0.032684277366   -0.747523809050    1.186824805256
