7

 C    0.014135564654    1.663790795759   -1.495482147596
 O    0.014135564654    0.228904795759   -1.495482147596
 H    0.933145564654   -0.067896204241   -1.495482147596
 H   -1.039183435346    1.971779795759   -1.495482147596
 H    0.502801564654    2.074723795759   -0.596042147596
 H    0.502801564654    2.074723795759   -2.394922147596
 K   -0.033424138224   -0.762953619885    1.229211405444
