7

 C    0.016835951342    1.720107406252   -1.650187197347
 O    0.016835951342    0.285221406252   -1.650187197347
 H    0.935845951342   -0.011579593748   -1.650187197347
 H   -1.036483048658    2.028096406252   -1.650187197347
 H    0.505501951342    2.131040406252   -0.750747197347
 H    0.505501951342    2.131040406252   -2.549627197347
 K   -0.035643720799   -0.809243052390    1.356371206007
