7

 C    0.020436466926    1.795196220242   -1.856460597016
 O    0.020436466926    0.360310220242   -1.856460597016
 H    0.939446466926    0.063509220242   -1.856460597016
 H   -1.032882533074    2.103185220242   -1.856460597016
 H    0.509102466926    2.206129220242   -0.957020597016
 H    0.509102466926    2.206129220242   -2.755900597016
 K   -0.038603164233   -0.870962295730    1.525917606758
