7

 C    0.021336595822    1.813968423740   -1.908028946933
 O    0.021336595822    0.379082423740   -1.908028946933
 H    0.940346595822    0.082281423740   -1.908028946933
 H   -1.031982404178    2.121957423740   -1.908028946933
 H    0.510002595822    2.224901423740   -1.008588946933
 H    0.510002595822    2.224901423740   -2.807468946933
 K   -0.039343025091   -0.886392106565    1.568304206946
