7

 C    0.022236724718    1.832740627238   -1.959597296850
 O    0.022236724718    0.397854627238   -1.959597296850
 H    0.941246724718    0.101053627238   -1.959597296850
 H   -1.031082275282    2.140729627238   -1.959597296850
 H    0.510902724718    2.243673627238   -1.060157296850
 H    0.510902724718    2.243673627238   -2.859037296850
 K   -0.040082885950   -0.901821917400    1.610690807133
