7

 C    0.023136853614    1.851512830735   -2.011165646767
 O    0.023136853614    0.416626830735   -2.011165646767
 H    0.942146853614    0.119825830735   -2.011165646767
 H   -1.030182146386    2.159501830735   -2.011165646767
 H    0.511802853614    2.262445830735   -1.111725646767
 H    0.511802853614    2.262445830735   -2.910605646767
 K   -0.040822746808   -0.917251728235    1.653077407321
