7

 C    0.024036982510    1.870285034233   -2.062733996684
 O    0.024036982510    0.435399034233   -2.062733996684
 H    0.943046982510    0.138598034233   -2.062733996684
 H   -1.029282017490    2.178274034233   -2.062733996684
 H    0.512702982510    2.281218034233   -1.163293996684
 H    0.512702982510    2.281218034233   -2.962173996684
 K   -0.041562607666   -0.932681539070    1.695464007509
