7

 C    0.024937111406    1.889057237730   -2.114302346601
 O    0.024937111406    0.454171237730   -2.114302346601
 H    0.943947111406    0.157370237730   -2.114302346601
 H   -1.028381888594    2.197046237730   -2.114302346601
 H    0.513603111406    2.299990237730   -1.214862346601
 H    0.513603111406    2.299990237730   -3.013742346601
 K   -0.042302468525   -0.948111349905    1.737850607696
