7

 C    0.025837240302    1.907829441228   -2.165870696519
 O    0.025837240302    0.472943441228   -2.165870696519
 H    0.944847240302    0.176142441228   -2.165870696519
 H   -1.027481759698    2.215818441228   -2.165870696519
 H    0.514503240302    2.318762441228   -1.266430696519
 H    0.514503240302    2.318762441228   -3.065310696519
 K   -0.043042329383   -0.963541160740    1.780237207884
