7

 C    0.027637498094    1.945373848223   -2.269007396353
 O    0.027637498094    0.510487848223   -2.269007396353
 H    0.946647498094    0.213686848223   -2.269007396353
 H   -1.025681501906    2.253362848223   -2.269007396353
 H    0.516303498094    2.356306848223   -1.369567396353
 H    0.516303498094    2.356306848223   -3.168447396353
 K   -0.044522051100   -0.994400782410    1.865010408260
