7

 C    0.028537626990    1.964146051720   -2.320575746270
 O    0.028537626990    0.529260051720   -2.320575746270
 H    0.947547626990    0.232459051720   -2.320575746270
 H   -1.024781373010    2.272135051720   -2.320575746270
 H    0.517203626990    2.375079051720   -1.421135746270
 H    0.517203626990    2.375079051720   -3.220015746270
 K   -0.045261911958   -1.009830593245    1.907397008447
