7

 C    0.029437755886    1.982918255218   -2.372144096187
 O    0.029437755886    0.548032255218   -2.372144096187
 H    0.948447755886    0.251231255218   -2.372144096187
 H   -1.023881244114    2.290907255218   -2.372144096187
 H    0.518103755886    2.393851255218   -1.472704096187
 H    0.518103755886    2.393851255218   -3.271584096187
 K   -0.046001772816   -1.025260404080    1.949783608635
