7

 C    0.031238013678    2.020462662213   -2.475280796021
 O    0.031238013678    0.585576662213   -2.475280796021
 H    0.950248013678    0.288775662213   -2.475280796021
 H   -1.022080986322    2.328451662213   -2.475280796021
 H    0.519904013678    2.431395662213   -1.575840796021
 H    0.519904013678    2.431395662213   -3.374720796021
 K   -0.047481494533   -1.056120025750    2.034556809010
