7

 C    0.034838529263    2.095551476203   -2.681554195690
 O    0.034838529263    0.660665476203   -2.681554195690
 H    0.953848529263    0.363864476203   -2.681554195690
 H   -1.018480470737    2.403540476203   -2.681554195690
 H    0.523504529263    2.506484476203   -1.782114195690
 H    0.523504529263    2.506484476203   -3.580994195690
 K   -0.050440937967   -1.117839269090    2.204103209761
