7

 C    0.036638787055    2.133095883199   -2.784690895524
 O    0.036638787055    0.698209883199   -2.784690895524
 H    0.955648787055    0.401408883199   -2.784690895524
 H   -1.016680212945    2.441084883199   -2.784690895524
 H    0.525304787055    2.544028883199   -1.885250895524
 H    0.525304787055    2.544028883199   -3.684130895524
 K   -0.051920659683   -1.148698890760    2.288876410137
