7

 C    0.039339173743    2.189412493691   -2.939395945275
 O    0.039339173743    0.754526493691   -2.939395945275
 H    0.958349173743    0.457725493691   -2.939395945275
 H   -1.013979826257    2.497401493691   -2.939395945275
 H    0.528005173743    2.600345493691   -2.039955945275
 H    0.528005173743    2.600345493691   -3.838835945275
 K   -0.054140242258   -1.194988323265    2.416036210700
