7

 C    0.040239302639    2.208184697189   -2.990964295192
 O    0.040239302639    0.773298697189   -2.990964295192
 H    0.959249302639    0.476497697189   -2.990964295192
 H   -1.013079697361    2.516173697189   -2.990964295192
 H    0.528905302639    2.619117697189   -2.091524295192
 H    0.528905302639    2.619117697189   -3.890404295192
 K   -0.054880103117   -1.210418134100    2.458422810888
