7

 C    0.060042138352    2.621173174135   -4.125467993369
 O    0.060042138352    1.186287174135   -4.125467993369
 H    0.979052138352    0.889486174135   -4.125467993369
 H   -0.993276861648    2.929162174135   -4.125467993369
 H    0.548708138352    3.032106174135   -3.226027993369
 H    0.548708138352    3.032106174135   -5.024907993369
 K   -0.071157042001   -1.549873972470    3.390928015017
