7

 C    0.069043427312    2.808895209111   -4.641151492540
 O    0.069043427312    1.374009209111   -4.641151492540
 H    0.988053427312    1.077208209111   -4.641151492540
 H   -0.984275572688    3.116884209111   -4.641151492540
 H    0.557709427312    3.219828209111   -3.741711492540
 H    0.557709427312    3.219828209111   -5.540591492540
 K   -0.078555650584   -1.704172080820    3.814794016895
