14

 C   -0.042103216628   -3.470261108782   -0.601708604805
 H   -0.034381216628   -4.563436108782   -0.601708604805
 C    1.168372783372   -2.750422108782   -0.601708604805
 H    2.123391783372   -3.284121108782   -0.601708604805
 C   -1.261927216628   -2.770255108782   -0.601708604805
 H   -2.210059216628   -3.316067108782   -0.601708604805
 C    1.165964783372   -1.345277108782   -0.601708604805
 H    2.097318783372   -0.772738108782   -0.601708604805
 C   -1.275778216628   -1.362774108782   -0.601708604805
 H   -2.227777216628   -0.820053108782   -0.601708604805
 C   -0.059501216628   -0.654992108782   -0.601708604805
 O    0.001045783372    0.725468891218   -0.601708604805
 H   -0.902085216628    1.073895891218   -0.601708604805
CS    0.036157730983    1.116717940564    0.425759804695
