14

 C   -0.047711129192   -3.532749538182   -0.765810951570
 H   -0.039989129192   -4.625924538182   -0.765810951570
 C    1.162764870808   -2.812910538182   -0.765810951570
 H    2.117783870808   -3.346609538182   -0.765810951570
 C   -1.267535129192   -2.832743538182   -0.765810951570
 H   -2.215667129192   -3.378555538182   -0.765810951570
 C    1.160356870808   -1.407765538182   -0.765810951570
 H    2.091710870808   -0.835226538182   -0.765810951570
 C   -1.281386129192   -1.425262538182   -0.765810951570
 H   -2.233385129192   -0.882541538182   -0.765810951570
 C   -0.065109129192   -0.717480538182   -0.765810951570
 O   -0.004562129192    0.662980461818   -0.765810951570
 H   -0.907693129192    1.011407461818   -0.765810951570
CS    0.040125804131    1.160933797350    0.541876115067
