14

 C   -0.051449737568   -3.574408491115   -0.875212516080
 H   -0.043727737568   -4.667583491115   -0.875212516080
 C    1.159026262432   -2.854569491115   -0.875212516080
 H    2.114045262432   -3.388268491115   -0.875212516080
 C   -1.271273737568   -2.874402491115   -0.875212516080
 H   -2.219405737568   -3.420214491115   -0.875212516080
 C    1.156618262432   -1.449424491115   -0.875212516080
 H    2.087972262432   -0.876885491115   -0.875212516080
 C   -1.285124737568   -1.466921491115   -0.875212516080
 H   -2.237123737568   -0.924200491115   -0.875212516080
 C   -0.068847737568   -0.759139491115   -0.875212516080
 O   -0.008300737568    0.621321508885   -0.875212516080
 H   -0.911431737568    0.969748508885   -0.875212516080
CS    0.042771186230    1.190411035207    0.619286988648
