14

 C   -0.053319041756   -3.595237967581   -0.929913298335
 H   -0.045597041756   -4.688412967581   -0.929913298335
 C    1.157156958244   -2.875398967581   -0.929913298335
 H    2.112175958244   -3.409097967581   -0.929913298335
 C   -1.273143041756   -2.895231967581   -0.929913298335
 H   -2.221275041756   -3.441043967581   -0.929913298335
 C    1.154748958244   -1.470253967581   -0.929913298335
 H    2.086102958244   -0.897714967581   -0.929913298335
 C   -1.286994041756   -1.487750967581   -0.929913298335
 H   -2.238993041756   -0.945029967581   -0.929913298335
 C   -0.070717041756   -0.779968967581   -0.929913298335
 O   -0.010170041756    0.600492032419   -0.929913298335
 H   -0.913301041756    0.948919032419   -0.929913298335
CS    0.044093877280    1.205149654136    0.657992425438
