14

 C   -0.055188345944   -3.616067444047   -0.984614080590
 H   -0.047466345944   -4.709242444047   -0.984614080590
 C    1.155287654056   -2.896228444047   -0.984614080590
 H    2.110306654056   -3.429927444047   -0.984614080590
 C   -1.275012345944   -2.916061444047   -0.984614080590
 H   -2.223144345944   -3.461873444047   -0.984614080590
 C    1.152879654056   -1.491083444047   -0.984614080590
 H    2.084233654056   -0.918544444047   -0.984614080590
 C   -1.288863345944   -1.508580444047   -0.984614080590
 H   -2.240862345944   -0.965859444047   -0.984614080590
 C   -0.072586345944   -0.800798444047   -0.984614080590
 O   -0.012039345944    0.579662555953   -0.984614080590
 H   -0.915170345944    0.928089555953   -0.984614080590
CS    0.045416568329    1.219888273064    0.696697862229
