14

 C   -0.057057650132   -3.636896920514   -1.039314862845
 H   -0.049335650132   -4.730071920514   -1.039314862845
 C    1.153418349868   -2.917057920514   -1.039314862845
 H    2.108437349868   -3.450756920514   -1.039314862845
 C   -1.276881650132   -2.936890920514   -1.039314862845
 H   -2.225013650132   -3.482702920514   -1.039314862845
 C    1.151010349868   -1.511912920514   -1.039314862845
 H    2.082364349868   -0.939373920514   -1.039314862845
 C   -1.290732650132   -1.529409920514   -1.039314862845
 H   -2.242731650132   -0.986688920514   -1.039314862845
 C   -0.074455650132   -0.821627920514   -1.039314862845
 O   -0.013908650132    0.558833079486   -1.039314862845
 H   -0.917039650132    0.907260079486   -1.039314862845
CS    0.046739259379    1.234626891993    0.735403299019
