14

 C   -0.068273475259   -3.761873779313   -1.367519556375
 H   -0.060551475259   -4.855048779313   -1.367519556375
 C    1.142202524741   -3.042034779313   -1.367519556375
 H    2.097221524741   -3.575733779313   -1.367519556375
 C   -1.288097475259   -3.061867779313   -1.367519556375
 H   -2.236229475259   -3.607679779313   -1.367519556375
 C    1.139794524741   -1.636889779313   -1.367519556375
 H    2.071148524741   -1.064350779313   -1.367519556375
 C   -1.301948475259   -1.654386779313   -1.367519556375
 H   -2.253947475259   -1.111665779313   -1.367519556375
 C   -0.085671475259   -0.946604779313   -1.367519556375
 O   -0.025124475259    0.433856220687   -1.367519556375
 H   -0.928255475259    0.782283220687   -1.367519556375
CS    0.054675405676    1.323058605564    0.967635919762
