14

 C   -0.070142779447   -3.782703255779   -1.422220338630
 H   -0.062420779447   -4.875878255779   -1.422220338630
 C    1.140333220553   -3.062864255779   -1.422220338630
 H    2.095352220553   -3.596563255779   -1.422220338630
 C   -1.289966779447   -3.082697255779   -1.422220338630
 H   -2.238098779447   -3.628509255779   -1.422220338630
 C    1.137925220553   -1.657719255779   -1.422220338630
 H    2.069279220553   -1.085180255779   -1.422220338630
 C   -1.303817779447   -1.675216255779   -1.422220338630
 H   -2.255816779447   -1.132495255779   -1.422220338630
 C   -0.087540779447   -0.967434255779   -1.422220338630
 O   -0.026993779447    0.413026744221   -1.422220338630
 H   -0.930124779447    0.761453744221   -1.422220338630
CS    0.055998096725    1.337797224493    1.006341356552
