14

 C   -0.073881387823   -3.824362208712   -1.531621903140
 H   -0.066159387823   -4.917537208712   -1.531621903140
 C    1.136594612177   -3.104523208712   -1.531621903140
 H    2.091613612177   -3.638222208712   -1.531621903140
 C   -1.293705387823   -3.124356208712   -1.531621903140
 H   -2.241837387823   -3.670168208712   -1.531621903140
 C    1.134186612177   -1.699378208712   -1.531621903140
 H    2.065540612177   -1.126839208712   -1.531621903140
 C   -1.307556387823   -1.716875208712   -1.531621903140
 H   -2.259555387823   -1.174154208712   -1.531621903140
 C   -0.091279387823   -1.009093208712   -1.531621903140
 O   -0.030732387823    0.371367791288   -1.531621903140
 H   -0.933863387823    0.719794791288   -1.531621903140
CS    0.058643478824    1.367274462350    1.083752230133
