14

 C   -0.075750692011   -3.845191685179   -1.586322685395
 H   -0.068028692011   -4.938366685179   -1.586322685395
 C    1.134725307989   -3.125352685179   -1.586322685395
 H    2.089744307989   -3.659051685179   -1.586322685395
 C   -1.295574692011   -3.145185685179   -1.586322685395
 H   -2.243706692011   -3.690997685179   -1.586322685395
 C    1.132317307989   -1.720207685179   -1.586322685395
 H    2.063671307989   -1.147668685179   -1.586322685395
 C   -1.309425692011   -1.737704685179   -1.586322685395
 H   -2.261424692011   -1.194983685179   -1.586322685395
 C   -0.093148692011   -1.029922685179   -1.586322685395
 O   -0.032601692011    0.350538314821   -1.586322685395
 H   -0.935732692011    0.698965314821   -1.586322685395
CS    0.059966169873    1.382013081279    1.122457666924
