14

 C   -0.079489300387   -3.886850638112   -1.695724249905
 H   -0.071767300387   -4.980025638112   -1.695724249905
 C    1.130986699613   -3.167011638112   -1.695724249905
 H    2.086005699613   -3.700710638112   -1.695724249905
 C   -1.299313300387   -3.186844638112   -1.695724249905
 H   -2.247445300387   -3.732656638112   -1.695724249905
 C    1.128578699613   -1.761866638112   -1.695724249905
 H    2.059932699613   -1.189327638112   -1.695724249905
 C   -1.313164300387   -1.779363638112   -1.695724249905
 H   -2.265163300387   -1.236642638112   -1.695724249905
 C   -0.096887300387   -1.071581638112   -1.695724249905
 O   -0.036340300387    0.308879361888   -1.695724249905
 H   -0.939471300387    0.657306361888   -1.695724249905
CS    0.062611551972    1.411490319136    1.199868540505
