14

 C   -0.085097212950   -3.949339067511   -1.859826596670
 H   -0.077375212950   -5.042514067511   -1.859826596670
 C    1.125378787050   -3.229500067511   -1.859826596670
 H    2.080397787050   -3.763199067511   -1.859826596670
 C   -1.304921212950   -3.249333067511   -1.859826596670
 H   -2.253053212950   -3.795145067511   -1.859826596670
 C    1.122970787050   -1.824355067511   -1.859826596670
 H    2.054324787050   -1.251816067511   -1.859826596670
 C   -1.318772212950   -1.841852067511   -1.859826596670
 H   -2.270771212950   -1.299131067511   -1.859826596670
 C   -0.102495212950   -1.134070067511   -1.859826596670
 O   -0.041948212950    0.246390932489   -1.859826596670
 H   -0.945079212950    0.594817932489   -1.859826596670
CS    0.066579625121    1.455706175922    1.315984850876
