14

 C   -0.086966517138   -3.970168543978   -1.914527378925
 H   -0.079244517138   -5.063343543978   -1.914527378925
 C    1.123509482862   -3.250329543978   -1.914527378925
 H    2.078528482862   -3.784028543978   -1.914527378925
 C   -1.306790517138   -3.270162543978   -1.914527378925
 H   -2.254922517138   -3.815974543978   -1.914527378925
 C    1.121101482862   -1.845184543978   -1.914527378925
 H    2.052455482862   -1.272645543978   -1.914527378925
 C   -1.320641517138   -1.862681543978   -1.914527378925
 H   -2.272640517138   -1.319960543978   -1.914527378925
 C   -0.104364517138   -1.154899543978   -1.914527378925
 O   -0.043817517138    0.225561456022   -1.914527378925
 H   -0.946948517138    0.573988456022   -1.914527378925
CS    0.067902316170    1.470444794850    1.354690287667
