14

 C   -0.088835821326   -3.990998020444   -1.969228161180
 H   -0.081113821326   -5.084173020444   -1.969228161180
 C    1.121640178674   -3.271159020444   -1.969228161180
 H    2.076659178674   -3.804858020444   -1.969228161180
 C   -1.308659821326   -3.290992020444   -1.969228161180
 H   -2.256791821326   -3.836804020444   -1.969228161180
 C    1.119232178674   -1.866014020444   -1.969228161180
 H    2.050586178674   -1.293475020444   -1.969228161180
 C   -1.322510821326   -1.883511020444   -1.969228161180
 H   -2.274509821326   -1.340790020444   -1.969228161180
 C   -0.106233821326   -1.175729020444   -1.969228161180
 O   -0.045686821326    0.204731979556   -1.969228161180
 H   -0.948817821326    0.553158979556   -1.969228161180
CS    0.069225007220    1.485183413779    1.393395724457
