14

 C   -0.098182342266   -4.095145402777   -2.242732072455
 H   -0.090460342266   -5.188320402777   -2.242732072455
 C    1.112293657734   -3.375306402777   -2.242732072455
 H    2.067312657734   -3.909005402777   -2.242732072455
 C   -1.318006342266   -3.395139402777   -2.242732072455
 H   -2.266138342266   -3.940951402777   -2.242732072455
 C    1.109885657734   -1.970161402777   -2.242732072455
 H    2.041239657734   -1.397622402777   -2.242732072455
 C   -1.331857342266   -1.987658402777   -2.242732072455
 H   -2.283856342266   -1.444937402777   -2.242732072455
 C   -0.115580342266   -1.279876402777   -2.242732072455
 O   -0.055033342266    0.100584597223   -2.242732072455
 H   -0.958164342266    0.449011597223   -2.242732072455
CS    0.075838462467    1.558876508422    1.586922908410
