14

 C   -0.100051646454   -4.115974879243   -2.297432854710
 H   -0.092329646454   -5.209149879243   -2.297432854710
 C    1.110424353546   -3.396135879243   -2.297432854710
 H    2.065443353546   -3.929834879243   -2.297432854710
 C   -1.319875646454   -3.415968879243   -2.297432854710
 H   -2.268007646454   -3.961780879243   -2.297432854710
 C    1.108016353546   -1.990990879243   -2.297432854710
 H    2.039370353546   -1.418451879243   -2.297432854710
 C   -1.333726646454   -2.008487879243   -2.297432854710
 H   -2.285725646454   -1.465766879243   -2.297432854710
 C   -0.117449646454   -1.300705879243   -2.297432854710
 O   -0.056902646454    0.079755120757   -2.297432854710
 H   -0.960033646454    0.428182120757   -2.297432854710
CS    0.077161153517    1.573615127351    1.625628345200
