14

 C   -0.103790254830   -4.157633832176   -2.406834419220
 H   -0.096068254830   -5.250808832176   -2.406834419220
 C    1.106685745170   -3.437794832176   -2.406834419220
 H    2.061704745170   -3.971493832176   -2.406834419220
 C   -1.323614254830   -3.457627832176   -2.406834419220
 H   -2.271746254830   -4.003439832176   -2.406834419220
 C    1.104277745170   -2.032649832176   -2.406834419220
 H    2.035631745170   -1.460110832176   -2.406834419220
 C   -1.337465254830   -2.050146832176   -2.406834419220
 H   -2.289464254830   -1.507425832176   -2.406834419220
 C   -0.121188254830   -1.342364832176   -2.406834419220
 O   -0.060641254830    0.038096167824   -2.406834419220
 H   -0.963772254830    0.386523167824   -2.406834419220
CS    0.079806535616    1.603092365208    1.703039218781
