14

 C   -0.107528863205   -4.199292785109   -2.516235983730
 H   -0.099806863205   -5.292467785109   -2.516235983730
 C    1.102947136795   -3.479453785109   -2.516235983730
 H    2.057966136795   -4.013152785109   -2.516235983730
 C   -1.327352863205   -3.499286785109   -2.516235983730
 H   -2.275484863205   -4.045098785109   -2.516235983730
 C    1.100539136795   -2.074308785109   -2.516235983730
 H    2.031893136795   -1.501769785109   -2.516235983730
 C   -1.341203863205   -2.091805785109   -2.516235983730
 H   -2.293202863205   -1.549084785109   -2.516235983730
 C   -0.124926863205   -1.384023785109   -2.516235983730
 O   -0.064379863205   -0.003562785109   -2.516235983730
 H   -0.967510863205    0.344864214891   -2.516235983730
CS    0.082451917714    1.632569603065    1.780450092362
