14

 C   -0.113136775769   -4.261781214509   -2.680338330494
 H   -0.105414775769   -5.354956214509   -2.680338330494
 C    1.097339224231   -3.541942214509   -2.680338330494
 H    2.052358224231   -4.075641214509   -2.680338330494
 C   -1.332960775769   -3.561775214509   -2.680338330494
 H   -2.281092775769   -4.107587214509   -2.680338330494
 C    1.094931224231   -2.136797214509   -2.680338330494
 H    2.026285224231   -1.564258214509   -2.680338330494
 C   -1.346811775769   -2.154294214509   -2.680338330494
 H   -2.298810775769   -1.611573214509   -2.680338330494
 C   -0.130534775769   -1.446512214509   -2.680338330494
 O   -0.069987775769   -0.066051214509   -2.680338330494
 H   -0.973118775769    0.282375785491   -2.680338330494
CS    0.086419990863    1.676785459851    1.896566402733
