14

 C   -0.116875384145   -4.303440167442   -2.789739895004
 H   -0.109153384145   -5.396615167442   -2.789739895004
 C    1.093600615855   -3.583601167442   -2.789739895004
 H    2.048619615855   -4.117300167442   -2.789739895004
 C   -1.336699384145   -3.603434167442   -2.789739895004
 H   -2.284831384145   -4.149246167442   -2.789739895004
 C    1.091192615855   -2.178456167442   -2.789739895004
 H    2.022546615855   -1.605917167442   -2.789739895004
 C   -1.350550384145   -2.195953167442   -2.789739895004
 H   -2.302549384145   -1.653232167442   -2.789739895004
 C   -0.134273384145   -1.488171167442   -2.789739895004
 O   -0.073726384145   -0.107710167442   -2.789739895004
 H   -0.976857384145    0.240716832558   -2.789739895004
CS    0.089065372962    1.706262697708    1.973977276314
