14

 C   -0.124352600897   -4.386758073308   -3.008543024024
 H   -0.116630600897   -5.479933073308   -3.008543024024
 C    1.086123399103   -3.666919073308   -3.008543024024
 H    2.041142399103   -4.200618073308   -3.008543024024
 C   -1.344176600897   -3.686752073308   -3.008543024024
 H   -2.292308600897   -4.232564073308   -3.008543024024
 C    1.083715399103   -2.261774073308   -3.008543024024
 H    2.015069399103   -1.689235073308   -3.008543024024
 C   -1.358027600897   -2.279271073308   -3.008543024024
 H   -2.310026600897   -1.736550073308   -3.008543024024
 C   -0.141750600897   -1.571489073308   -3.008543024024
 O   -0.081203600897   -0.191028073308   -3.008543024024
 H   -0.984334600897    0.157398926692   -3.008543024024
CS    0.094356137160    1.765217173423    2.128799023476
