14

 C   -0.131829817648   -4.470075979174   -3.227346153044
 H   -0.124107817648   -5.563250979174   -3.227346153044
 C    1.078646182352   -3.750236979174   -3.227346153044
 H    2.033665182352   -4.283935979174   -3.227346153044
 C   -1.351653817648   -3.770069979174   -3.227346153044
 H   -2.299785817648   -4.315881979174   -3.227346153044
 C    1.076238182352   -2.345091979174   -3.227346153044
 H    2.007592182352   -1.772552979174   -3.227346153044
 C   -1.365504817648   -2.362588979174   -3.227346153044
 H   -2.317503817648   -1.819867979174   -3.227346153044
 C   -0.149227817648   -1.654806979174   -3.227346153044
 O   -0.088680817648   -0.274345979174   -3.227346153044
 H   -0.991811817648    0.074081020826   -3.227346153044
CS    0.099646901358    1.824171649137    2.283620770638
