14

 C   -0.137437730212   -4.532564408573   -3.391448499809
 H   -0.129715730212   -5.625739408573   -3.391448499809
 C    1.073038269788   -3.812725408573   -3.391448499809
 H    2.028057269788   -4.346424408573   -3.391448499809
 C   -1.357261730212   -3.832558408573   -3.391448499809
 H   -2.305393730212   -4.378370408573   -3.391448499809
 C    1.070630269788   -2.407580408573   -3.391448499809
 H    2.001984269788   -1.835041408573   -3.391448499809
 C   -1.371112730212   -2.425077408573   -3.391448499809
 H   -2.323111730212   -1.882356408573   -3.391448499809
 C   -0.154835730212   -1.717295408573   -3.391448499809
 O   -0.094288730212   -0.336834408573   -3.391448499809
 H   -0.997419730212    0.011592591427   -3.391448499809
CS    0.103614974506    1.868387505923    2.399737081010
