14

 C   -0.139307034400   -4.553393885040   -3.446149282064
 H   -0.131585034400   -5.646568885040   -3.446149282064
 C    1.071168965600   -3.833554885040   -3.446149282064
 H    2.026187965600   -4.367253885040   -3.446149282064
 C   -1.359131034400   -3.853387885040   -3.446149282064
 H   -2.307263034400   -4.399199885040   -3.446149282064
 C    1.068760965600   -2.428409885040   -3.446149282064
 H    2.000114965600   -1.855870885040   -3.446149282064
 C   -1.372982034400   -2.445906885040   -3.446149282064
 H   -2.324981034400   -1.903185885040   -3.446149282064
 C   -0.156705034400   -1.738124885040   -3.446149282064
 O   -0.096158034400   -0.357663885040   -3.446149282064
 H   -0.999289034400   -0.009236885040   -3.446149282064
CS    0.104937665555    1.883126124851    2.438442517800
