14

 C   -0.141176338588   -4.574223361506   -3.500850064319
 H   -0.133454338588   -5.667398361506   -3.500850064319
 C    1.069299661412   -3.854384361506   -3.500850064319
 H    2.024318661412   -4.388083361506   -3.500850064319
 C   -1.361000338588   -3.874217361506   -3.500850064319
 H   -2.309132338588   -4.420029361506   -3.500850064319
 C    1.066891661412   -2.449239361506   -3.500850064319
 H    1.998245661412   -1.876700361506   -3.500850064319
 C   -1.374851338588   -2.466736361506   -3.500850064319
 H   -2.326850338588   -1.924015361506   -3.500850064319
 C   -0.158574338588   -1.758954361506   -3.500850064319
 O   -0.098027338588   -0.378493361506   -3.500850064319
 H   -1.001158338588   -0.030066361506   -3.500850064319
CS    0.106260356605    1.897864743780    2.477147954591
