14

 C   -0.148653555340   -4.657541267372   -3.719653193339
 H   -0.140931555340   -5.750716267372   -3.719653193339
 C    1.061822444660   -3.937702267372   -3.719653193339
 H    2.016841444660   -4.471401267372   -3.719653193339
 C   -1.368477555340   -3.957535267372   -3.719653193339
 H   -2.316609555340   -4.503347267372   -3.719653193339
 C    1.059414444660   -2.532557267372   -3.719653193339
 H    1.990768444660   -1.960018267372   -3.719653193339
 C   -1.382328555340   -2.550054267372   -3.719653193339
 H   -2.334327555340   -2.007333267372   -3.719653193339
 C   -0.166051555340   -1.842272267372   -3.719653193339
 O   -0.105504555340   -0.461811267372   -3.719653193339
 H   -1.008635555340   -0.113384267372   -3.719653193339
CS    0.111551120803    1.956819219494    2.631969701752
