14

 C   -0.150522859527   -4.678370743839   -3.774353975594
 H   -0.142800859527   -5.771545743839   -3.774353975594
 C    1.059953140473   -3.958531743839   -3.774353975594
 H    2.014972140473   -4.492230743839   -3.774353975594
 C   -1.370346859527   -3.978364743839   -3.774353975594
 H   -2.318478859527   -4.524176743839   -3.774353975594
 C    1.057545140473   -2.553386743839   -3.774353975594
 H    1.988899140473   -1.980847743839   -3.774353975594
 C   -1.384197859527   -2.570883743839   -3.774353975594
 H   -2.336196859527   -2.028162743839   -3.774353975594
 C   -0.167920859527   -1.863101743839   -3.774353975594
 O   -0.107373859527   -0.482640743839   -3.774353975594
 H   -1.010504859527   -0.134213743839   -3.774353975594
CS    0.112873811852    1.971557838423    2.670675138543
