14

 C   -0.156130772091   -4.740859173238   -3.938456322359
 H   -0.148408772091   -5.834034173238   -3.938456322359
 C    1.054345227909   -4.021020173238   -3.938456322359
 H    2.009364227909   -4.554719173238   -3.938456322359
 C   -1.375954772091   -4.040853173238   -3.938456322359
 H   -2.324086772091   -4.586665173238   -3.938456322359
 C    1.051937227909   -2.615875173238   -3.938456322359
 H    1.983291227909   -2.043336173238   -3.938456322359
 C   -1.389805772091   -2.633372173238   -3.938456322359
 H   -2.341804772091   -2.090651173238   -3.938456322359
 C   -0.173528772091   -1.925590173238   -3.938456322359
 O   -0.112981772091   -0.545129173238   -3.938456322359
 H   -1.016112772091   -0.196702173238   -3.938456322359
CS    0.116841885001    2.015773695209    2.786791448914
