14

 C   -0.159869380467   -4.782518126171   -4.047857886869
 H   -0.152147380467   -5.875693126171   -4.047857886869
 C    1.050606619533   -4.062679126171   -4.047857886869
 H    2.005625619533   -4.596378126171   -4.047857886869
 C   -1.379693380467   -4.082512126171   -4.047857886869
 H   -2.327825380467   -4.628324126171   -4.047857886869
 C    1.048198619533   -2.657534126171   -4.047857886869
 H    1.979552619533   -2.084995126171   -4.047857886869
 C   -1.393544380467   -2.675031126171   -4.047857886869
 H   -2.345543380467   -2.132310126171   -4.047857886869
 C   -0.177267380467   -1.967249126171   -4.047857886869
 O   -0.116720380467   -0.586788126171   -4.047857886869
 H   -1.019851380467   -0.238361126171   -4.047857886869
CS    0.119487267100    2.045250933066    2.864202322495
