14

 C   -0.161738684655   -4.803347602638   -4.102558669124
 H   -0.154016684655   -5.896522602638   -4.102558669124
 C    1.048737315345   -4.083508602638   -4.102558669124
 H    2.003756315345   -4.617207602638   -4.102558669124
 C   -1.381562684655   -4.103341602638   -4.102558669124
 H   -2.329694684655   -4.649153602638   -4.102558669124
 C    1.046329315345   -2.678363602638   -4.102558669124
 H    1.977683315345   -2.105824602638   -4.102558669124
 C   -1.395413684655   -2.695860602638   -4.102558669124
 H   -2.347412684655   -2.153139602638   -4.102558669124
 C   -0.179136684655   -1.988078602638   -4.102558669124
 O   -0.118589684655   -0.607617602638   -4.102558669124
 H   -1.021720684655   -0.259190602638   -4.102558669124
CS    0.120809958149    2.059989551995    2.902907759286
