14

 C   -0.163607988843   -4.824177079104   -4.157259451379
 H   -0.155885988843   -5.917352079104   -4.157259451379
 C    1.046868011157   -4.104338079104   -4.157259451379
 H    2.001887011157   -4.638037079104   -4.157259451379
 C   -1.383431988843   -4.124171079104   -4.157259451379
 H   -2.331563988843   -4.669983079104   -4.157259451379
 C    1.044460011157   -2.699193079104   -4.157259451379
 H    1.975814011157   -2.126654079104   -4.157259451379
 C   -1.397282988843   -2.716690079104   -4.157259451379
 H   -2.349281988843   -2.173969079104   -4.157259451379
 C   -0.181005988843   -2.008908079104   -4.157259451379
 O   -0.120458988843   -0.628447079104   -4.157259451379
 H   -1.023589988843   -0.280020079104   -4.157259451379
CS    0.122132649199    2.074728170923    2.941613196076
