14

 C   -0.171085205595   -4.907494984970   -4.376062580399
 H   -0.163363205595   -6.000669984970   -4.376062580399
 C    1.039390794405   -4.187655984970   -4.376062580399
 H    1.994409794405   -4.721354984970   -4.376062580399
 C   -1.390909205595   -4.207488984970   -4.376062580399
 H   -2.339041205595   -4.753300984970   -4.376062580399
 C    1.036982794405   -2.782510984970   -4.376062580399
 H    1.968336794405   -2.209971984970   -4.376062580399
 C   -1.404760205595   -2.800007984970   -4.376062580399
 H   -2.356759205595   -2.257286984970   -4.376062580399
 C   -0.188483205595   -2.092225984970   -4.376062580399
 O   -0.127936205595   -0.711764984970   -4.376062580399
 H   -1.031067205595   -0.363337984970   -4.376062580399
CS    0.127423413396    2.133682646638    3.096434943238
