14

 C   -0.172954509782   -4.928324461437   -4.430763362654
 H   -0.165232509782   -6.021499461437   -4.430763362654
 C    1.037521490218   -4.208485461437   -4.430763362654
 H    1.992540490218   -4.742184461437   -4.430763362654
 C   -1.392778509782   -4.228318461437   -4.430763362654
 H   -2.340910509782   -4.774130461437   -4.430763362654
 C    1.035113490218   -2.803340461437   -4.430763362654
 H    1.966467490218   -2.230801461437   -4.430763362654
 C   -1.406629509782   -2.820837461437   -4.430763362654
 H   -2.358628509782   -2.278116461437   -4.430763362654
 C   -0.190352509782   -2.113055461437   -4.430763362654
 O   -0.129805509782   -0.732594461437   -4.430763362654
 H   -1.032936509782   -0.384167461437   -4.430763362654
CS    0.128746104446    2.148421265566    3.135140380029
