14

 C   -0.176693118158   -4.969983414370   -4.540164927164
 H   -0.168971118158   -6.063158414370   -4.540164927164
 C    1.033782881842   -4.250144414370   -4.540164927164
 H    1.988801881842   -4.783843414370   -4.540164927164
 C   -1.396517118158   -4.269977414370   -4.540164927164
 H   -2.344649118158   -4.815789414370   -4.540164927164
 C    1.031374881842   -2.844999414370   -4.540164927164
 H    1.962728881842   -2.272460414370   -4.540164927164
 C   -1.410368118158   -2.862496414370   -4.540164927164
 H   -2.362367118158   -2.319775414370   -4.540164927164
 C   -0.194091118158   -2.154714414370   -4.540164927164
 O   -0.133544118158   -0.774253414370   -4.540164927164
 H   -1.036675118158   -0.425826414370   -4.540164927164
CS    0.131391486545    2.177898503423    3.212551253610
