14

 C   -0.182301030722   -5.032471843769   -4.704267273929
 H   -0.174579030722   -6.125646843769   -4.704267273929
 C    1.028174969278   -4.312632843769   -4.704267273929
 H    1.983193969278   -4.846331843769   -4.704267273929
 C   -1.402125030722   -4.332465843769   -4.704267273929
 H   -2.350257030722   -4.878277843769   -4.704267273929
 C    1.025766969278   -2.907487843769   -4.704267273929
 H    1.957120969278   -2.334948843769   -4.704267273929
 C   -1.415976030722   -2.924984843769   -4.704267273929
 H   -2.367975030722   -2.382263843769   -4.704267273929
 C   -0.199699030722   -2.217202843769   -4.704267273929
 O   -0.139152030722   -0.836741843769   -4.704267273929
 H   -1.042283030722   -0.488314843769   -4.704267273929
CS    0.135359559693    2.222114360209    3.328667563981
