14

 C   -0.187908943286   -5.094960273169   -4.868369620694
 H   -0.180186943286   -6.188135273169   -4.868369620694
 C    1.022567056714   -4.375121273169   -4.868369620694
 H    1.977586056714   -4.908820273169   -4.868369620694
 C   -1.407732943286   -4.394954273169   -4.868369620694
 H   -2.355864943286   -4.940766273169   -4.868369620694
 C    1.020159056714   -2.969976273169   -4.868369620694
 H    1.951513056714   -2.397437273169   -4.868369620694
 C   -1.421583943286   -2.987473273169   -4.868369620694
 H   -2.373582943286   -2.444752273169   -4.868369620694
 C   -0.205306943286   -2.279691273169   -4.868369620694
 O   -0.144759943286   -0.899230273169   -4.868369620694
 H   -1.047890943286   -0.550803273169   -4.868369620694
CS    0.139327632842    2.266330216995    3.444783874352
