14

 C   -0.189778247474   -5.115789749635   -4.923070402949
 H   -0.182056247474   -6.208964749635   -4.923070402949
 C    1.020697752526   -4.395950749635   -4.923070402949
 H    1.975716752526   -4.929649749635   -4.923070402949
 C   -1.409602247474   -4.415783749635   -4.923070402949
 H   -2.357734247474   -4.961595749635   -4.923070402949
 C    1.018289752526   -2.990805749635   -4.923070402949
 H    1.949643752526   -2.418266749635   -4.923070402949
 C   -1.423453247474   -3.008302749635   -4.923070402949
 H   -2.375452247474   -2.465581749635   -4.923070402949
 C   -0.207176247474   -2.300520749635   -4.923070402949
 O   -0.146629247474   -0.920059749635   -4.923070402949
 H   -1.049760247474   -0.571632749635   -4.923070402949
CS    0.140650323891    2.281068835924    3.483489311143
