14

 C   -0.199124768413   -5.219937131968   -5.196574314224
 H   -0.191402768413   -6.313112131968   -5.196574314224
 C    1.011351231587   -4.500098131968   -5.196574314224
 H    1.966370231587   -5.033797131968   -5.196574314224
 C   -1.418948768413   -4.519931131968   -5.196574314224
 H   -2.367080768413   -5.065743131968   -5.196574314224
 C    1.008943231587   -3.094953131968   -5.196574314224
 H    1.940297231587   -2.522414131968   -5.196574314224
 C   -1.432799768413   -3.112450131968   -5.196574314224
 H   -2.384798768413   -2.569729131968   -5.196574314224
 C   -0.216522768413   -2.404668131968   -5.196574314224
 O   -0.155975768413   -1.024207131968   -5.196574314224
 H   -1.059106768413   -0.675780131968   -5.196574314224
CS    0.147263779138    2.354761930567    3.677016495095
