17

 N   -0.446528118884   -2.258551306592   -0.012060991580
 C    0.763659947960   -1.603345102916   -0.008099367612
 N    1.997072362263   -2.202022797378    0.003938917293
 C    2.967495562319   -1.311846655767   -0.007933539680
 N    2.764418724906    0.049791477747   -0.014768700022
 H    3.568245850157    0.669752017502   -0.096756722444
 N    4.292950316556   -1.730521377447   -0.086280842915
 H    4.947486521888   -1.198718153047    0.481359933815
 H    4.371755403947   -2.731221521382    0.075302495074
 C    1.505144982589    0.735825181278   -0.001814913345
 O    1.477564613484    1.963998266055   -0.005903041773
 C    0.432359856613   -0.237868207996    0.004386284595
 N   -0.938713445156   -0.051537162683    0.004311099879
 C   -1.432236939667   -1.290140176728   -0.006018999786
 H   -2.489734852935   -1.544286798560   -0.008965644212
 H   -0.571625115415   -3.265134391824   -0.020720542611
CS   -1.442875280210    0.812051577428    0.010255174955
