17

 N   -0.422930756919   -2.298971692811   -0.012339204807
 C    0.787257309925   -1.643765489135   -0.008377580839
 N    2.020669724228   -2.242443183597    0.003660704066
 C    2.991092924284   -1.352267041986   -0.008211752907
 N    2.788016086871    0.009371091528   -0.015046913249
 H    3.591843212122    0.629331631283   -0.097034935671
 N    4.316547678521   -1.770941763666   -0.086559056142
 H    4.971083883853   -1.239138539266    0.481081720588
 H    4.395352765912   -2.771641907601    0.075024281847
 C    1.528742344554    0.695404795059   -0.002093126572
 O    1.501161975449    1.923577879836   -0.006181255000
 C    0.455957218578   -0.278288594215    0.004108071368
 N   -0.915116083191   -0.091957548902    0.004032886652
 C   -1.408639577702   -1.330560562947   -0.006297213013
 H   -2.466137490970   -1.584707184779   -0.009243857439
 H   -0.548027753450   -3.305554778043   -0.020998755838
CS   -1.469694101749    0.857990065220    0.010571369235
