17

 N   -0.399333394953   -2.339392079030   -0.012617418034
 C    0.810854671891   -1.684185875354   -0.008655794066
 N    2.044267086194   -2.282863569816    0.003382490839
 C    3.014690286250   -1.392687428205   -0.008489966134
 N    2.811613448837   -0.031049294691   -0.015325126476
 H    3.615440574088    0.588911245064   -0.097313148898
 N    4.340145040487   -1.811362149885   -0.086837269369
 H    4.994681245819   -1.279558925485    0.480803507361
 H    4.418950127878   -2.812062293820    0.074746068620
 C    1.552339706520    0.654984408840   -0.002371339799
 O    1.524759337415    1.883157493617   -0.006459468227
 C    0.479554580544   -0.318708980434    0.003829858141
 N   -0.891518721225   -0.132377935121    0.003754673425
 C   -1.385042215736   -1.370980949166   -0.006575426240
 H   -2.442540129004   -1.625127570998   -0.009522070666
 H   -0.524430391484   -3.345975164262   -0.021276969065
CS   -1.496512923289    0.903928553012    0.010887563516
