17

 N   -0.352138671022   -2.420232851468   -0.013173844488
 C    0.858049395822   -1.765026647792   -0.009212220520
 N    2.091461810125   -2.363704342254    0.002826064385
 C    3.061885010181   -1.473528200643   -0.009046392588
 N    2.858808172768   -0.111890067129   -0.015881552930
 H    3.662635298019    0.508070472626   -0.097869575352
 N    4.387339764418   -1.892202922323   -0.087393695823
 H    5.041875969750   -1.360399697923    0.480247080907
 H    4.466144851809   -2.892903066258    0.074189642166
 C    1.599534430451    0.574143636402   -0.002927766253
 O    1.571954061346    1.802316721179   -0.007015894681
 C    0.526749304475   -0.399549752872    0.003273431687
 N   -0.844323997294   -0.213218707559    0.003198246971
 C   -1.337847491805   -1.451821721604   -0.007131852694
 H   -2.395345405073   -1.705968343436   -0.010078497120
 H   -0.477235667553   -3.426815936700   -0.021833395519
CS   -1.550150566369    0.995805528596    0.011519952077
