17

 N   -0.328541309056   -2.460653237688   -0.013452057715
 C    0.881646757788   -1.805447034012   -0.009490433747
 N    2.115059172091   -2.404124728474    0.002547851158
 C    3.085482372147   -1.513948586863   -0.009324605815
 N    2.882405534734   -0.152310453349   -0.016159766157
 H    3.686232659985    0.467650086406   -0.098147788579
 N    4.410937126384   -1.932623308543   -0.087671909050
 H    5.065473331716   -1.400820084143    0.479968867680
 H    4.489742213775   -2.933323452478    0.073911428939
 C    1.623131792417    0.533723250182   -0.003205979480
 O    1.595551423312    1.761896334959   -0.007294107908
 C    0.550346666441   -0.439970139092    0.002995218460
 N   -0.820726635328   -0.253639093779    0.002920033744
 C   -1.314250129839   -1.492242107824   -0.007410065921
 H   -2.371748043107   -1.746388729656   -0.010356710347
 H   -0.453638305587   -3.467236322920   -0.022111608746
CS   -1.576969387909    1.041744016388    0.011836146357
