17

 N   -0.186957137263   -2.703175555002   -0.015121337078
 C    1.023230929581   -2.047969351326   -0.011159713110
 N    2.256643343884   -2.646647045788    0.000878571795
 C    3.227066543940   -1.756470904177   -0.010993885178
 N    3.023989706527   -0.394832770663   -0.017829045520
 H    3.827816831778    0.225127769092   -0.099817067942
 N    4.552521298177   -2.175145625857   -0.089341188413
 H    5.207057503509   -1.643342401457    0.478299588317
 H    4.631326385568   -3.175845769792    0.072242149576
 C    1.764715964210    0.291200932868   -0.004875258843
 O    1.737135595105    1.519374017645   -0.008963387271
 C    0.691930838234   -0.682492456406    0.001325939097
 N   -0.679142463535   -0.496161411093    0.001250754381
 C   -1.172665958046   -1.734764425138   -0.009079345284
 H   -2.230163871314   -1.988911046970   -0.012025989710
 H   -0.312054133794   -3.709758640234   -0.023780888109
CS   -1.737882317147    1.317374943140    0.013733312040
