17

 N   -0.139762413332   -2.784016327440   -0.015677763532
 C    1.070425653512   -2.128810123764   -0.011716139564
 N    2.303838067815   -2.727487818226    0.000322145341
 C    3.274261267871   -1.837311676615   -0.011550311632
 N    3.071184430458   -0.475673543101   -0.018385471974
 H    3.875011555709    0.144286996654   -0.100373494396
 N    4.599716022108   -2.255986398295   -0.089897614867
 H    5.254252227440   -1.724183173895    0.477743161863
 H    4.678521109499   -3.256686542230    0.071685723122
 C    1.811910688141    0.210360160430   -0.005431685297
 O    1.784330319036    1.438533245207   -0.009519813725
 C    0.739125562165   -0.763333228844    0.000769512643
 N   -0.631947739604   -0.577002183531    0.000694327927
 C   -1.125471234115   -1.815605197576   -0.009635771738
 H   -2.182969147383   -2.069751819408   -0.012582416164
 H   -0.264859409863   -3.790599412672   -0.024337314563
CS   -1.791519960227    1.409251918724    0.014365700601
