17

 N   -0.116165051366   -2.824436713660   -0.015955976759
 C    1.094023015478   -2.169230509984   -0.011994352791
 N    2.327435429781   -2.767908204446    0.000043932114
 C    3.297858629837   -1.877732062835   -0.011828524859
 N    3.094781792424   -0.516093929321   -0.018663685201
 H    3.898608917675    0.103866610434   -0.100651707623
 N    4.623313384074   -2.296406784515   -0.090175828094
 H    5.277849589406   -1.764603560115    0.477464948636
 H    4.702118471465   -3.297106928450    0.071407509895
 C    1.835508050107    0.169939774210   -0.005709898524
 O    1.807927681002    1.398112858987   -0.009798026952
 C    0.762722924131   -0.803753615064    0.000491299416
 N   -0.608350377638   -0.617422569751    0.000416114700
 C   -1.101873872149   -1.856025583796   -0.009913984965
 H   -2.159371785417   -2.110172205628   -0.012860629391
 H   -0.241262047897   -3.831019798892   -0.024615527790
CS   -1.818338781767    1.455190406516    0.014681894881
