17

 N   -0.045372965469   -2.945697872317   -0.016790616440
 C    1.164815101375   -2.290491668641   -0.012828992472
 N    2.398227515678   -2.889169363103   -0.000790707567
 C    3.368650715734   -1.998993221492   -0.012663164540
 N    3.165573878321   -0.637355087978   -0.019498324882
 H    3.969401003572   -0.017394548223   -0.101486347304
 N    4.694105469971   -2.417667943172   -0.091010467775
 H    5.348641675303   -1.885864718772    0.476630308955
 H    4.772910557362   -3.418368087107    0.070572870214
 C    1.906300136004    0.048678615553   -0.006544538205
 O    1.878719766899    1.276851700330   -0.010632666633
 C    0.833515010028   -0.925014773721   -0.000343340265
 N   -0.537558291741   -0.738683728408   -0.000418524981
 C   -1.031081786252   -1.977286742453   -0.010748624646
 H   -2.088579699520   -2.231433364285   -0.013695269072
 H   -0.170469962000   -3.952280957549   -0.025450167471
CS   -1.898795246386    1.593005869892    0.015630477723
