17

 N   -0.021775603504   -2.986118258536   -0.017068829667
 C    1.188412463340   -2.330912054860   -0.013107205699
 N    2.421824877643   -2.929589749322   -0.001068920794
 C    3.392248077699   -2.039413607711   -0.012941377767
 N    3.189171240286   -0.677775474197   -0.019776538109
 H    3.992998365537   -0.057814934442   -0.101764560531
 N    4.717702831936   -2.458088329391   -0.091288681002
 H    5.372239037268   -1.926285104991    0.476352095728
 H    4.796507919327   -3.458788473326    0.070294656987
 C    1.929897497969    0.008258229334   -0.006822751432
 O    1.902317128864    1.236431314111   -0.010910879860
 C    0.857112371993   -0.965435159940   -0.000621553492
 N   -0.513960929776   -0.779104114627   -0.000696738208
 C   -1.007484424287   -2.017707128672   -0.011026837873
 H   -2.064982337555   -2.271853750504   -0.013973482299
 H   -0.146872600035   -3.992701343768   -0.025728380698
CS   -1.925614067926    1.638944357684    0.015946672003
