17

 N    0.025419120427   -3.066959030974   -0.017625256122
 C    1.235607187271   -2.411752827298   -0.013663632154
 N    2.469019601574   -3.010430521760   -0.001625347249
 C    3.439442801630   -2.120254380149   -0.013497804222
 N    3.236365964217   -0.758616246635   -0.020332964564
 H    4.040193089468   -0.138655706880   -0.102320986986
 N    4.764897555867   -2.538929101829   -0.091845107457
 H    5.419433761199   -2.007125877429    0.475795669273
 H    4.843702643258   -3.539629245764    0.069738230532
 C    1.977092221900   -0.072582543104   -0.007379177887
 O    1.949511852795    1.155590541673   -0.011467306315
 C    0.904307095924   -1.046275932378   -0.001177979947
 N   -0.466766205845   -0.859944887065   -0.001253164663
 C   -0.960289700356   -2.098547901110   -0.011583264328
 H   -2.017787613624   -2.352694522942   -0.014529908754
 H   -0.099677876104   -4.073542116206   -0.026284807153
CS   -1.979251711005    1.730821333268    0.016579060564
