17

 N    0.049016482393   -3.107379417193   -0.017903469349
 C    1.259204549237   -2.452173213517   -0.013941845381
 N    2.492616963540   -3.050850907979   -0.001903560476
 C    3.463040163596   -2.160674766368   -0.013776017449
 N    3.259963326183   -0.799036632854   -0.020611177791
 H    4.063790451434   -0.179076093099   -0.102599200213
 N    4.788494917833   -2.579349488048   -0.092123320684
 H    5.443031123165   -2.047546263648    0.475517456046
 H    4.867300005224   -3.580049631983    0.069460017305
 C    2.000689583866   -0.113002929323   -0.007657391114
 O    1.973109214761    1.115170155454   -0.011745519542
 C    0.927904457890   -1.086696318597   -0.001456193174
 N   -0.443168843879   -0.900365273284   -0.001531377890
 C   -0.936692338390   -2.138968287329   -0.011861477555
 H   -1.994190251658   -2.393114909161   -0.014808121981
 H   -0.076080514138   -4.113962502425   -0.026563020380
CS   -2.006070532545    1.776759821060    0.016895254845
