17

 N    0.096211206324   -3.188220189632   -0.018459895803
 C    1.306399273168   -2.533013985956   -0.014498271835
 N    2.539811687471   -3.131691680418   -0.002459986930
 C    3.510234887527   -2.241515538807   -0.014332443903
 N    3.307158050114   -0.879877405293   -0.021167604245
 H    4.110985175365   -0.259916865538   -0.103155626667
 N    4.835689641764   -2.660190260487   -0.092679747138
 H    5.490225847096   -2.128387036087    0.474961029592
 H    4.914494729155   -3.660890404422    0.068903590851
 C    2.047884307797   -0.193843701762   -0.008213817568
 O    2.020303938692    1.034329383015   -0.012301945996
 C    0.975099181821   -1.167537091036   -0.002012619628
 N   -0.395974119948   -0.981206045723   -0.002087804344
 C   -0.889497614459   -2.219809059768   -0.012417904009
 H   -1.946995527727   -2.473955681600   -0.015364548435
 H   -0.028885790207   -4.194803274864   -0.027119446834
CS   -2.059708175625    1.868636796645    0.017527643406
