17

 N    0.119808568290   -3.228640575851   -0.018738109030
 C    1.329996635134   -2.573434372175   -0.014776485062
 N    2.563409049437   -3.172112066637   -0.002738200157
 C    3.533832249493   -2.281935925026   -0.014610657130
 N    3.330755412080   -0.920297791512   -0.021445817472
 H    4.134582537331   -0.300337251757   -0.103433839894
 N    4.859287003730   -2.700610646706   -0.092957960365
 H    5.513823209062   -2.168807422306    0.474682816365
 H    4.938092091121   -3.701310790641    0.068625377624
 C    2.071481669763   -0.234264087981   -0.008492030795
 O    2.043901300658    0.993908996796   -0.012580159223
 C    0.998696543787   -1.207957477255   -0.002290832855
 N   -0.372376757982   -1.021626431942   -0.002366017571
 C   -0.865900252493   -2.260229445987   -0.012696117236
 H   -1.923398165761   -2.514376067819   -0.015642761662
 H   -0.005288428241   -4.235223661083   -0.027397660061
CS   -2.086526997164    1.914575284437    0.017843837686
