17

 N    0.190600654186   -3.349901734508   -0.019572748711
 C    1.400788721030   -2.694695530832   -0.015611124743
 N    2.634201135333   -3.293373225294   -0.003572839838
 C    3.604624335389   -2.403197083683   -0.015445296811
 N    3.401547497976   -1.041558950169   -0.022280457153
 H    4.205374623227   -0.421598410414   -0.104268479575
 N    4.930079089626   -2.821871805363   -0.093792600046
 H    5.584615294958   -2.290068580963    0.473848176684
 H    5.008884177017   -3.822571949298    0.067790737943
 C    2.142273755659   -0.355525246638   -0.009326670476
 O    2.114693386554    0.872647838139   -0.013414798904
 C    1.069488629683   -1.329218635912   -0.003125472536
 N   -0.301584672086   -1.142887590599   -0.003200657252
 C   -0.795108166597   -2.381490604644   -0.013530756917
 H   -1.852606079865   -2.635637226476   -0.016477401343
 H    0.065503657655   -4.356484819740   -0.028232299742
CS   -2.166983461784    2.052390747813    0.018792420527
