17

 N    0.214198016152   -3.390322120727   -0.019850961938
 C    1.424386082996   -2.735115917051   -0.015889337970
 N    2.657798497299   -3.333793611513   -0.003851053065
 C    3.628221697355   -2.443617469902   -0.015723510038
 N    3.425144859942   -1.081979336388   -0.022558670380
 H    4.228971985193   -0.462018796633   -0.104546692802
 N    4.953676451592   -2.862292191582   -0.094070813273
 H    5.608212656924   -2.330488967182    0.473569963457
 H    5.032481538983   -3.862992335517    0.067512524716
 C    2.165871117625   -0.395945632857   -0.009604883703
 O    2.138290748520    0.832227451920   -0.013693012131
 C    1.093085991649   -1.369639022131   -0.003403685763
 N   -0.277987310120   -1.183307976818   -0.003478870479
 C   -0.771510804631   -2.421910990863   -0.013808970144
 H   -1.829008717899   -2.676057612695   -0.016755614570
 H    0.089101019621   -4.396905205959   -0.028510512969
CS   -2.193802283323    2.098329235605    0.019108614808
