17

 N    0.237795378118   -3.430742506946   -0.020129175165
 C    1.447983444962   -2.775536303270   -0.016167551197
 N    2.681395859265   -3.374213997732   -0.004129266292
 C    3.651819059321   -2.484037856121   -0.016001723265
 N    3.448742221908   -1.122399722607   -0.022836883607
 H    4.252569347159   -0.502439182852   -0.104824906029
 N    4.977273813558   -2.902712577801   -0.094349026500
 H    5.631810018890   -2.370909353401    0.473291750230
 H    5.056078900949   -3.903412721736    0.067234311489
 C    2.189468479591   -0.436366019076   -0.009883096930
 O    2.161888110486    0.791807065701   -0.013971225358
 C    1.116683353615   -1.410059408350   -0.003681898990
 N   -0.254389948154   -1.223728363037   -0.003757083706
 C   -0.747913442665   -2.462331377082   -0.014087183371
 H   -1.805411355933   -2.716477998914   -0.017033827797
 H    0.112698381587   -4.437325592178   -0.028788726196
CS   -2.220621104863    2.144267723397    0.019424809088
