17

 N    0.379379549911   -3.673264824261   -0.021798454528
 C    1.589567616755   -3.018058620585   -0.017836830560
 N    2.822980031058   -3.616736315047   -0.005798545655
 C    3.793403231114   -2.726560173436   -0.017671002628
 N    3.590326393701   -1.364922039922   -0.024506162970
 H    4.394153518952   -0.744961500167   -0.106494185392
 N    5.118857985351   -3.145234895116   -0.096018305863
 H    5.773394190683   -2.613431670716    0.471622470867
 H    5.197663072742   -4.145935039051    0.065565032126
 C    2.331052651384   -0.678888336391   -0.011552376293
 O    2.303472282279    0.549284748386   -0.015640504721
 C    1.258267525408   -1.652581725665   -0.005351178353
 N   -0.112805776361   -1.466250680352   -0.005426363069
 C   -0.606329270872   -2.704853694397   -0.015756462734
 H   -1.663827184140   -2.959000316229   -0.018703107160
 H    0.254282553380   -4.679847909493   -0.030458005559
CS   -2.381534034102    2.419898650149    0.021321974771
