17

 N    0.426574273842   -3.754105596699   -0.022354880982
 C    1.636762340686   -3.098899393023   -0.018393257014
 N    2.870174754989   -3.697577087485   -0.006354972109
 C    3.840597955045   -2.807400945874   -0.018227429082
 N    3.637521117632   -1.445762812360   -0.025062589424
 H    4.441348242883   -0.825802272605   -0.107050611846
 N    5.166052709282   -3.226075667554   -0.096574732317
 H    5.820588914614   -2.694272443154    0.471066044413
 H    5.244857796673   -4.226775811489    0.065008605672
 C    2.378247375315   -0.759729108829   -0.012108802747
 O    2.350667006210    0.468443975948   -0.016196931175
 C    1.305462249339   -1.733422498103   -0.005907604807
 N   -0.065611052430   -1.547091452790   -0.005982789523
 C   -0.559134546941   -2.785694466835   -0.016312889188
 H   -1.616632460209   -3.039841088667   -0.019259533614
 H    0.301477277311   -4.760688681931   -0.031014432013
CS   -2.435171677181    2.511775625733    0.021954363332
