17

 N    0.497366359739   -3.875366755357   -0.023189520663
 C    1.707554426583   -3.220160551681   -0.019227896695
 N    2.940966840886   -3.818838246143   -0.007189611790
 C    3.911390040942   -2.928662104532   -0.019062068763
 N    3.708313203529   -1.567023971018   -0.025897229105
 H    4.512140328780   -0.947063431263   -0.107885251527
 N    5.236844795179   -3.347336826212   -0.097409371998
 H    5.891381000511   -2.815533601812    0.470231404732
 H    5.315649882570   -4.348036970147    0.064173965991
 C    2.449039461212   -0.880990267487   -0.012943442428
 O    2.421459092107    0.347182817290   -0.017031570856
 C    1.376254335236   -1.854683656761   -0.006742244488
 N    0.005181033467   -1.668352611448   -0.006817429204
 C   -0.488342461044   -2.906955625493   -0.017147528869
 H   -1.545840374312   -3.161102247325   -0.020094173295
 H    0.372269363208   -4.881949840589   -0.031849071694
CS   -2.515628141801    2.649591089109    0.022902946173
