17

 N    0.520963721705   -3.915787141576   -0.023467733891
 C    1.731151788549   -3.260580937900   -0.019506109923
 N    2.964564202852   -3.859258632362   -0.007467825018
 C    3.934987402908   -2.969082490751   -0.019340281991
 N    3.731910565495   -1.607444357237   -0.026175442333
 H    4.535737690746   -0.987483817482   -0.108163464755
 N    5.260442157145   -3.387757212431   -0.097687585226
 H    5.914978362477   -2.855953988031    0.469953191504
 H    5.339247244536   -4.388457356366    0.063895752763
 C    2.472636823178   -0.921410653706   -0.013221655656
 O    2.445056454073    0.306762431071   -0.017309784084
 C    1.399851697202   -1.895104042980   -0.007020457716
 N    0.028778395433   -1.708772997667   -0.007095642432
 C   -0.464745099078   -2.947376011712   -0.017425742097
 H   -1.522243012346   -3.201522633544   -0.020372386523
 H    0.395866725174   -4.922370226808   -0.032127284922
CS   -2.542446963340    2.695529576901    0.023219140454
