17

 N    0.544561083670   -3.956207527795   -0.023745947118
 C    1.754749150514   -3.301001324119   -0.019784323150
 N    2.988161564817   -3.899679018581   -0.007746038245
 C    3.958584764873   -3.009502876970   -0.019618495218
 N    3.755507927460   -1.647864743456   -0.026453655560
 H    4.559335052711   -1.027904203701   -0.108441677982
 N    5.284039519110   -3.428177598650   -0.097965798453
 H    5.938575724442   -2.896374374250    0.469674978277
 H    5.362844606501   -4.428877742585    0.063617539536
 C    2.496234185143   -0.961831039925   -0.013499868883
 O    2.468653816038    0.266342044852   -0.017587997311
 C    1.423449059167   -1.935524429199   -0.007298670943
 N    0.052375757398   -1.749193383886   -0.007373855659
 C   -0.441147737113   -2.987796397931   -0.017703955324
 H   -1.498645650381   -3.241943019763   -0.020650599750
 H    0.419464087139   -4.962790613027   -0.032405498149
CS   -2.569265784880    2.741468064693    0.023535334734
