17

 N    0.709742617429   -4.239150231329   -0.025693439707
 C    1.919930684273   -3.583944027653   -0.021731815739
 N    3.153343098576   -4.182621722115   -0.009693530834
 C    4.123766298632   -3.292445580504   -0.021565987807
 N    3.920689461219   -1.930807446990   -0.028401148149
 H    4.724516586470   -1.310846907235   -0.110389170571
 N    5.449221052869   -3.711120302184   -0.099913291042
 H    6.103757258201   -3.179317077784    0.467727485688
 H    5.528026140260   -4.711820446119    0.061670046947
 C    2.661415718902   -1.244773743459   -0.015447361472
 O    2.633835349797   -0.016600658682   -0.019535489900
 C    1.588630592926   -2.218467132733   -0.009246163532
 N    0.217557291157   -2.032136087420   -0.009321348248
 C   -0.275966203354   -3.270739101465   -0.019651447913
 H   -1.333464116622   -3.524885723297   -0.022598092339
 H    0.584645620898   -5.245733316561   -0.034352990738
CS   -2.756997535659    3.063037479237    0.025748694698
