17

 N    0.780534703326   -4.360411389986   -0.026528079389
 C    1.990722770170   -3.705205186310   -0.022566455421
 N    3.224135184473   -4.303882880772   -0.010528170516
 C    4.194558384529   -3.413706739161   -0.022400627489
 N    3.991481547116   -2.052068605647   -0.029235787831
 H    4.795308672367   -1.432108065892   -0.111223810253
 N    5.520013138766   -3.832381460841   -0.100747930724
 H    6.174549344098   -3.300578236441    0.466892846006
 H    5.598818226157   -4.833081604776    0.060835407265
 C    2.732207804799   -1.366034902116   -0.016282001154
 O    2.704627435694   -0.137861817339   -0.020370129582
 C    1.659422678823   -2.339728291390   -0.010080803214
 N    0.288349377054   -2.153397246077   -0.010155987930
 C   -0.205174117457   -3.392000260122   -0.020486087595
 H   -1.262672030725   -3.646146881954   -0.023432732021
 H    0.655437706795   -5.366994475218   -0.035187630420
CS   -2.837454000278    3.200852942613    0.026697277539
