17

 N    0.827729427257   -4.441252162424   -0.027084505843
 C    2.037917494101   -3.786045958748   -0.023122881875
 N    3.271329908404   -4.384723653210   -0.011084596970
 C    4.241753108460   -3.494547511599   -0.022957053943
 N    4.038676271047   -2.132909378085   -0.029792214285
 H    4.842503396298   -1.512948838330   -0.111780236707
 N    5.567207862697   -3.913222233279   -0.101304357178
 H    6.221744068029   -3.381419008879    0.466336419552
 H    5.646012950088   -4.913922377214    0.060278980811
 C    2.779402528730   -1.446875674554   -0.016838427608
 O    2.751822159625   -0.218702589777   -0.020926556036
 C    1.706617402754   -2.420569063828   -0.010637229668
 N    0.335544100985   -2.234238018515   -0.010712414384
 C   -0.157979393526   -3.472841032560   -0.021042514049
 H   -1.215477306794   -3.726987654392   -0.023989158475
 H    0.702632430726   -5.447835247656   -0.035744056874
CS   -2.891091643358    3.292729918197    0.027329666100
