17

 N    0.851326789223   -4.481672548643   -0.027362719070
 C    2.061514856067   -3.826466344967   -0.023401095102
 N    3.294927270370   -4.425144039429   -0.011362810197
 C    4.265350470426   -3.534967897818   -0.023235267170
 N    4.062273633013   -2.173329764304   -0.030070427512
 H    4.866100758264   -1.553369224549   -0.112058449934
 N    5.590805224663   -3.953642619498   -0.101582570405
 H    6.245341429995   -3.421839395098    0.466058206325
 H    5.669610312054   -4.954342763433    0.060000767584
 C    2.802999890696   -1.487296060773   -0.017116640835
 O    2.775419521591   -0.259122975996   -0.021204769263
 C    1.730214764720   -2.460989450047   -0.010915442895
 N    0.359141462951   -2.274658404734   -0.010990627611
 C   -0.134382031560   -3.513261418779   -0.021320727276
 H   -1.191879944828   -3.767408040611   -0.024267371702
 H    0.726229792692   -5.488255633875   -0.036022270101
CS   -2.917910464897    3.338668405989    0.027645860380
