17

 N    0.874924151188   -4.522092934863   -0.027640932297
 C    2.085112218032   -3.866886731187   -0.023679308329
 N    3.318524632335   -4.465564425649   -0.011641023424
 C    4.288947832391   -3.575388284038   -0.023513480397
 N    4.085870994978   -2.213750150524   -0.030348640739
 H    4.889698120229   -1.593789610769   -0.112336663161
 N    5.614402586628   -3.994063005718   -0.101860783632
 H    6.268938791960   -3.462259781318    0.465779993098
 H    5.693207674019   -4.994763149653    0.059722554357
 C    2.826597252661   -1.527716446993   -0.017394854062
 O    2.799016883556   -0.299543362216   -0.021482982490
 C    1.753812126685   -2.501409836267   -0.011193656122
 N    0.382738824916   -2.315078790954   -0.011268840838
 C   -0.110784669595   -3.553681804999   -0.021598940503
 H   -1.168282582863   -3.807828426831   -0.024545584929
 H    0.749827154657   -5.528676020095   -0.036300483328
CS   -2.944729286437    3.384606893781    0.027962054661
