17

 N    0.898521513154   -4.562513321082   -0.027919145524
 C    2.108709579998   -3.907307117406   -0.023957521556
 N    3.342121994301   -4.505984811868   -0.011919236651
 C    4.312545194357   -3.615808670257   -0.023791693624
 N    4.109468356944   -2.254170536743   -0.030626853966
 H    4.913295482195   -1.634209996988   -0.112614876388
 N    5.637999948594   -4.034483391937   -0.102138996859
 H    6.292536153926   -3.502680167537    0.465501779871
 H    5.716805035985   -5.035183535872    0.059444341130
 C    2.850194614627   -1.568136833212   -0.017673067289
 O    2.822614245522   -0.339963748435   -0.021761195717
 C    1.777409488651   -2.541830222486   -0.011471869349
 N    0.406336186882   -2.355499177173   -0.011547054065
 C   -0.087187307629   -3.594102191218   -0.021877153730
 H   -1.144685220897   -3.848248813050   -0.024823798156
 H    0.773424516623   -5.569096406314   -0.036578696555
CS   -2.971548107977    3.430545381573    0.028278248941
