17

 N    0.922118875119   -4.602933707301   -0.028197358751
 C    2.132306941963   -3.947727503625   -0.024235734783
 N    3.365719356266   -4.546405198087   -0.012197449878
 C    4.336142556322   -3.656229056476   -0.024069906851
 N    4.133065718909   -2.294590922962   -0.030905067193
 H    4.936892844160   -1.674630383207   -0.112893089615
 N    5.661597310559   -4.074903778156   -0.102417210086
 H    6.316133515891   -3.543100553756    0.465223566644
 H    5.740402397950   -5.075603922091    0.059166127903
 C    2.873791976592   -1.608557219431   -0.017951280516
 O    2.846211607487   -0.380384134654   -0.022039408944
 C    1.801006850616   -2.582250608705   -0.011750082576
 N    0.429933548847   -2.395919563392   -0.011825267292
 C   -0.063589945664   -3.634522577437   -0.022155366957
 H   -1.121087858932   -3.888669199269   -0.025102011383
 H    0.797021878588   -5.609516792533   -0.036856909782
CS   -2.998366929517    3.476483869365    0.028594443222
