17

 N    0.992910961016   -4.724194865958   -0.029031998432
 C    2.203099027860   -4.068988662282   -0.025070374464
 N    3.436511442163   -4.667666356744   -0.013032089559
 C    4.406934642219   -3.777490215133   -0.024904546532
 N    4.203857804806   -2.415852081619   -0.031739706874
 H    5.007684930057   -1.795891541864   -0.113727729296
 N    5.732389396456   -4.196164936813   -0.103251849767
 H    6.386925601788   -3.664361712413    0.464388926963
 H    5.811194483847   -5.196865080748    0.058331488222
 C    2.944584062489   -1.729818378088   -0.018785920197
 O    2.917003693384   -0.501645293311   -0.022874048625
 C    1.871798936513   -2.703511767362   -0.012584722257
 N    0.500725634744   -2.517180722049   -0.012659906973
 C    0.007202140233   -3.755783736094   -0.022990006638
 H   -1.050295773035   -4.009930357926   -0.025936651064
 H    0.867813964485   -5.730777951190   -0.037691549463
CS   -3.078823394136    3.614299332741    0.029543026063
