17

 N    1.087300408878   -4.885876410835   -0.030144851341
 C    2.297488475722   -4.230670207159   -0.026183227373
 N    3.530900890025   -4.829347901621   -0.014144942468
 C    4.501324090081   -3.939171760010   -0.026017399441
 N    4.298247252668   -2.577533626496   -0.032852559783
 H    5.102074377919   -1.957573086741   -0.114840582205
 N    5.826778844318   -4.357846481690   -0.104364702676
 H    6.481315049650   -3.826043257290    0.463276074054
 H    5.905583931709   -5.358546625625    0.057218635313
 C    3.038973510351   -1.891499922965   -0.019898773106
 O    3.011393141246   -0.663326838188   -0.023986901534
 C    1.966188384375   -2.865193312239   -0.013697575166
 N    0.595115082606   -2.678862266926   -0.013772759882
 C    0.101591588095   -3.917465280971   -0.024102859547
 H   -0.955906325173   -4.171611902803   -0.027049503973
 H    0.962203412347   -5.892459496067   -0.038804402372
CS   -3.186098680295    3.798053283909    0.030807803185
