17

 N    1.181689856741   -5.047557955711   -0.031257704249
 C    2.391877923585   -4.392351752035   -0.027296080281
 N    3.625290337888   -4.991029446497   -0.015257795376
 C    4.595713537944   -4.100853304886   -0.027130252349
 N    4.392636700531   -2.739215171372   -0.033965412691
 H    5.196463825782   -2.119254631617   -0.115953435113
 N    5.921168292181   -4.519528026566   -0.105477555584
 H    6.575704497513   -3.987724802166    0.462163221146
 H    5.999973379572   -5.520228170501    0.056105782405
 C    3.133362958214   -2.053181467841   -0.021011626014
 O    3.105782589109   -0.825008383064   -0.025099754442
 C    2.060577832238   -3.026874857115   -0.014810428074
 N    0.689504530469   -2.840543811802   -0.014885612790
 C    0.195981035958   -4.079146825847   -0.025215712455
 H   -0.861516877310   -4.333293447679   -0.028162356881
 H    1.056592860210   -6.054141040943   -0.039917255280
CS   -3.293373966454    3.981807235077    0.032072580307
