17

 N    1.276079304603   -5.209239500588   -0.032370557158
 C    2.486267371447   -4.554033296912   -0.028408933190
 N    3.719679785750   -5.152710991374   -0.016370648285
 C    4.690102985806   -4.262534849763   -0.028243105258
 N    4.487026148393   -2.900896716249   -0.035078265600
 H    5.290853273644   -2.280936176494   -0.117066288022
 N    6.015557740043   -4.681209571443   -0.106590408493
 H    6.670093945375   -4.149406347043    0.461050368237
 H    6.094362827434   -5.681909715378    0.054992929496
 C    3.227752406076   -2.214863012718   -0.022124478923
 O    3.200172036971   -0.986689927941   -0.026212607351
 C    2.154967280100   -3.188556401992   -0.015923280983
 N    0.783893978331   -3.002225356679   -0.015998465699
 C    0.290370483820   -4.240828370724   -0.026328565364
 H   -0.767127429448   -4.494974992556   -0.029275209790
 H    1.150982308072   -6.215822585820   -0.041030108189
CS   -3.400649252613    4.165561186245    0.033337357429
