17

 N    1.346871390500   -5.330500659245   -0.033205196839
 C    2.557059457344   -4.675294455569   -0.029243572871
 N    3.790471871647   -5.273972150031   -0.017205287966
 C    4.760895071703   -4.383796008420   -0.029077744939
 N    4.557818234290   -3.022157874906   -0.035912905281
 H    5.361645359541   -2.402197335151   -0.117900927703
 N    6.086349825940   -4.802470730100   -0.107425048174
 H    6.740886031272   -4.270667505700    0.460215728556
 H    6.165154913331   -5.803170874035    0.054158289815
 C    3.298544491973   -2.336124171375   -0.022959118604
 O    3.270964122868   -1.107951086598   -0.027047247032
 C    2.225759365997   -3.309817560649   -0.016757920664
 N    0.854686064228   -3.123486515336   -0.016833105380
 C    0.361162569717   -4.362089529381   -0.027163205045
 H   -0.696335343551   -4.616236151213   -0.030109849471
 H    1.221774393969   -6.337083744477   -0.041864747870
CS   -3.481105717233    4.303376649621    0.034285940270
