17

 N    1.370468752465   -5.370921045464   -0.033483410066
 C    2.580656819309   -4.715714841788   -0.029521786098
 N    3.814069233612   -5.314392536250   -0.017483501193
 C    4.784492433668   -4.424216394639   -0.029355958166
 N    4.581415596255   -3.062578261125   -0.036191118508
 H    5.385242721506   -2.442617721370   -0.118179140930
 N    6.109947187905   -4.842891116319   -0.107703261401
 H    6.764483393237   -4.311087891919    0.459937515329
 H    6.188752275296   -5.843591260254    0.053880076588
 C    3.322141853938   -2.376544557594   -0.023237331831
 O    3.294561484833   -1.148371472817   -0.027325460259
 C    2.249356727962   -3.350237946868   -0.017036133891
 N    0.878283426193   -3.163906901555   -0.017111318607
 C    0.384759931682   -4.402509915600   -0.027441418272
 H   -0.672737981586   -4.656656537432   -0.030388062698
 H    1.245371755934   -6.377504130696   -0.042142961097
CS   -3.507924538772    4.349315137413    0.034602134550
