17

 N    1.394066114431   -5.411341431683   -0.033761623293
 C    2.604254181275   -4.756135228007   -0.029799999325
 N    3.837666595578   -5.354812922469   -0.017761714420
 C    4.808089795634   -4.464636780858   -0.029634171393
 N    4.605012958221   -3.102998647344   -0.036469331735
 H    5.408840083472   -2.483038107589   -0.118457354157
 N    6.133544549871   -4.883311502538   -0.107981474628
 H    6.788080755203   -4.351508278138    0.459659302102
 H    6.212349637262   -5.884011646473    0.053601863361
 C    3.345739215904   -2.416964943813   -0.023515545058
 O    3.318158846799   -1.188791859036   -0.027603673486
 C    2.272954089928   -3.390658333087   -0.017314347118
 N    0.901880788159   -3.204327287774   -0.017389531834
 C    0.408357293648   -4.442930301819   -0.027719631499
 H   -0.649140619620   -4.697076923651   -0.030666275925
 H    1.268969117900   -6.417924516915   -0.042421174324
CS   -3.534743360312    4.395253625205    0.034918328831
