17

 N    1.464858200328   -5.532602590340   -0.034596262974
 C    2.675046267172   -4.877396386664   -0.030634639006
 N    3.908458681475   -5.476074081126   -0.018596354101
 C    4.878881881531   -4.585897939515   -0.030468811074
 N    4.675805044118   -3.224259806001   -0.037303971416
 H    5.479632169369   -2.604299266246   -0.119291993838
 N    6.204336635768   -5.004572661195   -0.108816114309
 H    6.858872841100   -4.472769436795    0.458824662421
 H    6.283141723159   -6.005272805130    0.052767223680
 C    3.416531301801   -2.538226102470   -0.024350184739
 O    3.388950932696   -1.310053017693   -0.028438313167
 C    2.343746175825   -3.511919491744   -0.018148986799
 N    0.972672874056   -3.325588446431   -0.018224171515
 C    0.479149379545   -4.564191460476   -0.028554271180
 H   -0.578348533723   -4.818338082308   -0.031500915606
 H    1.339761203797   -6.539185675572   -0.043255814005
CS   -3.615199824932    4.533069088581    0.035866911672
