17

 N    1.488455562293   -5.573022976560   -0.034874476201
 C    2.698643629137   -4.917816772884   -0.030912852233
 N    3.932056043440   -5.516494467346   -0.018874567328
 C    4.902479243496   -4.626318325735   -0.030747024301
 N    4.699402406083   -3.264680192221   -0.037582184643
 H    5.503229531334   -2.644719652466   -0.119570207065
 N    6.227933997733   -5.044993047415   -0.109094327536
 H    6.882470203065   -4.513189823015    0.458546449194
 H    6.306739085124   -6.045693191350    0.052489010453
 C    3.440128663766   -2.578646488690   -0.024628397966
 O    3.412548294661   -1.350473403913   -0.028716526394
 C    2.367343537790   -3.552339877964   -0.018427200026
 N    0.996270236021   -3.366008832651   -0.018502384742
 C    0.502746741510   -4.604611846696   -0.028832484407
 H   -0.554751171758   -4.858758468528   -0.031779128833
 H    1.363358565762   -6.579606061792   -0.043534027232
CS   -3.642018646471    4.579007576373    0.036183105953
