17

 N    1.606442372121   -5.775124907655   -0.036265542337
 C    2.816630438965   -5.119918703979   -0.032303918369
 N    4.050042853268   -5.718596398441   -0.020265633464
 C    5.020466053324   -4.828420256830   -0.032138090437
 N    4.817389215911   -3.466782123316   -0.038973250779
 H    5.621216341162   -2.846821583561   -0.120961273201
 N    6.345920807561   -5.247094978510   -0.110485393672
 H    7.000457012893   -4.715291754110    0.457155383058
 H    6.424725894952   -6.247795122445    0.051097944317
 C    3.558115473594   -2.780748419785   -0.026019464102
 O    3.530535104489   -1.552575335008   -0.030107592530
 C    2.485330347618   -3.754441809059   -0.019818266162
 N    1.114257045849   -3.568110763746   -0.019893450878
 C    0.620733551338   -4.806713777791   -0.030223550543
 H   -0.436764361930   -5.060860399623   -0.033170194969
 H    1.481345375590   -6.781707992887   -0.044925093368
CS   -3.776112754170    4.808700015333    0.037764077355
