20

 H    4.070775617119    1.750130006249   -0.904090000000
 H    2.524805617119    2.134130006249    0.000000000000
 H    4.070775617119    1.750130006249    0.904090000000
 C    3.497605617119    1.551580006249    0.000000000000
 S    2.580205617119    0.000000006249    0.000000000000
 C    3.497605617119   -1.551579993751    0.000000000000
 H    4.070775617119   -1.750129993751    0.904090000000
 H    2.524805617119   -2.134129993751    0.000000000000
 H    4.070775617119   -1.750129993751   -0.904090000000
CS   -0.298944382881   -3.219599993751    0.000000000000
CS   -0.298944382881    3.219600006249    0.000000000000
 S   -1.298944382881    0.000000006249    0.000000000000
 C   -2.216340432026   -1.551576849409    0.000000000000
 H   -2.789512434175   -1.750132408995    0.904092118431
 H   -1.243539254825   -2.134126762925    0.000000000000
 H   -2.789512434175   -1.750132408995   -0.904092118431
 C   -2.216340702827    1.551576701791    0.000000000000
 H   -2.789512739631    1.750132161339   -0.904092118431
 H   -1.243539627301    2.134126785093    0.000000000000
 H   -2.789512739631    1.750132161339    0.904092118431
