20

 H    4.118501041466    1.750130006249   -0.904090000000
 H    2.572531041466    2.134130006249    0.000000000000
 H    4.118501041466    1.750130006249    0.904090000000
 C    3.545331041466    1.551580006249    0.000000000000
 S    2.627931041466    0.000000006249    0.000000000000
 C    3.545331041466   -1.551579993751    0.000000000000
 H    4.118501041466   -1.750129993751    0.904090000000
 H    2.572531041466   -2.134129993751    0.000000000000
 H    4.118501041466   -1.750129993751   -0.904090000000
CS   -0.251218958534   -3.219599993751    0.000000000000
CS   -0.251218958534    3.219600006249    0.000000000000
 S   -1.551218958534    0.000000006249    0.000000000000
 C   -2.468615007679   -1.551576849409    0.000000000000
 H   -3.041787009828   -1.750132408995    0.904092118431
 H   -1.495813830479   -2.134126762925    0.000000000000
 H   -3.041787009828   -1.750132408995   -0.904092118431
 C   -2.468615278480    1.551576701791    0.000000000000
 H   -3.041787315284    1.750132161339   -0.904092118431
 H   -1.495814202954    2.134126785093    0.000000000000
 H   -3.041787315284    1.750132161339    0.904092118431
