20

 H    4.134409516248    1.750130006249   -0.904090000000
 H    2.588439516248    2.134130006249    0.000000000000
 H    4.134409516248    1.750130006249    0.904090000000
 C    3.561239516248    1.551580006249    0.000000000000
 S    2.643839516248    0.000000006249    0.000000000000
 C    3.561239516248   -1.551579993751    0.000000000000
 H    4.134409516248   -1.750129993751    0.904090000000
 H    2.588439516248   -2.134129993751    0.000000000000
 H    4.134409516248   -1.750129993751   -0.904090000000
CS   -0.235310483752   -3.219599993751    0.000000000000
CS   -0.235310483752    3.219600006249    0.000000000000
 S   -1.635310483752    0.000000006249    0.000000000000
 C   -2.552706532897   -1.551576849409    0.000000000000
 H   -3.125878535046   -1.750132408995    0.904092118431
 H   -1.579905355696   -2.134126762925    0.000000000000
 H   -3.125878535046   -1.750132408995   -0.904092118431
 C   -2.552706803698    1.551576701791    0.000000000000
 H   -3.125878840502    1.750132161339   -0.904092118431
 H   -1.579905728172    2.134126785093    0.000000000000
 H   -3.125878840502    1.750132161339    0.904092118431
