20

 H    4.182134940595    1.750130006249   -0.904090000000
 H    2.636164940595    2.134130006249    0.000000000000
 H    4.182134940595    1.750130006249    0.904090000000
 C    3.608964940595    1.551580006249    0.000000000000
 S    2.691564940595    0.000000006249    0.000000000000
 C    3.608964940595   -1.551579993751    0.000000000000
 H    4.182134940595   -1.750129993751    0.904090000000
 H    2.636164940595   -2.134129993751    0.000000000000
 H    4.182134940595   -1.750129993751   -0.904090000000
CS   -0.187585059405   -3.219599993751    0.000000000000
CS   -0.187585059405    3.219600006249    0.000000000000
 S   -1.887585059405    0.000000006249    0.000000000000
 C   -2.804981108550   -1.551576849409    0.000000000000
 H   -3.378153110699   -1.750132408995    0.904092118431
 H   -1.832179931350   -2.134126762925    0.000000000000
 H   -3.378153110699   -1.750132408995   -0.904092118431
 C   -2.804981379351    1.551576701791    0.000000000000
 H   -3.378153416155    1.750132161339   -0.904092118431
 H   -1.832180303825    2.134126785093    0.000000000000
 H   -3.378153416155    1.750132161339    0.904092118431
