20

 H    4.229860364941    1.750130006249   -0.904090000000
 H    2.683890364941    2.134130006249    0.000000000000
 H    4.229860364941    1.750130006249    0.904090000000
 C    3.656690364941    1.551580006249    0.000000000000
 S    2.739290364941    0.000000006249    0.000000000000
 C    3.656690364941   -1.551579993751    0.000000000000
 H    4.229860364941   -1.750129993751    0.904090000000
 H    2.683890364941   -2.134129993751    0.000000000000
 H    4.229860364941   -1.750129993751   -0.904090000000
CS   -0.139859635059   -3.219599993751    0.000000000000
CS   -0.139859635059    3.219600006249    0.000000000000
 S   -2.139859635059    0.000000006249    0.000000000000
 C   -3.057255684203   -1.551576849409    0.000000000000
 H   -3.630427686353   -1.750132408995    0.904092118431
 H   -2.084454507003   -2.134126762925    0.000000000000
 H   -3.630427686353   -1.750132408995   -0.904092118431
 C   -3.057255955005    1.551576701791    0.000000000000
 H   -3.630427991808    1.750132161339   -0.904092118431
 H   -2.084454879478    2.134126785093    0.000000000000
 H   -3.630427991808    1.750132161339    0.904092118431
