20

 H    4.245768839724    1.750130006249   -0.904090000000
 H    2.699798839724    2.134130006249    0.000000000000
 H    4.245768839724    1.750130006249    0.904090000000
 C    3.672598839724    1.551580006249    0.000000000000
 S    2.755198839724    0.000000006249    0.000000000000
 C    3.672598839724   -1.551579993751    0.000000000000
 H    4.245768839724   -1.750129993751    0.904090000000
 H    2.699798839724   -2.134129993751    0.000000000000
 H    4.245768839724   -1.750129993751   -0.904090000000
CS   -0.123951160276   -3.219599993751    0.000000000000
CS   -0.123951160276    3.219600006249    0.000000000000
 S   -2.223951160276    0.000000006249    0.000000000000
 C   -3.141347209421   -1.551576849409    0.000000000000
 H   -3.714519211570   -1.750132408995    0.904092118431
 H   -2.168546032221   -2.134126762925    0.000000000000
 H   -3.714519211570   -1.750132408995   -0.904092118431
 C   -3.141347480222    1.551576701791    0.000000000000
 H   -3.714519517026    1.750132161339   -0.904092118431
 H   -2.168546404696    2.134126785093    0.000000000000
 H   -3.714519517026    1.750132161339    0.904092118431
