20

 H    4.277585789288    1.750130006249   -0.904090000000
 H    2.731615789288    2.134130006249    0.000000000000
 H    4.277585789288    1.750130006249    0.904090000000
 C    3.704415789288    1.551580006249    0.000000000000
 S    2.787015789288    0.000000006249    0.000000000000
 C    3.704415789288   -1.551579993751    0.000000000000
 H    4.277585789288   -1.750129993751    0.904090000000
 H    2.731615789288   -2.134129993751    0.000000000000
 H    4.277585789288   -1.750129993751   -0.904090000000
CS   -0.092134210712   -3.219599993751    0.000000000000
CS   -0.092134210712    3.219600006249    0.000000000000
 S   -2.392134210712    0.000000006249    0.000000000000
 C   -3.309530259857   -1.551576849409    0.000000000000
 H   -3.882702262006   -1.750132408995    0.904092118431
 H   -2.336729082656   -2.134126762925    0.000000000000
 H   -3.882702262006   -1.750132408995   -0.904092118431
 C   -3.309530530658    1.551576701791    0.000000000000
 H   -3.882702567462    1.750132161339   -0.904092118431
 H   -2.336729455132    2.134126785093    0.000000000000
 H   -3.882702567462    1.750132161339    0.904092118431
