20

 H    4.373036637981    1.750130006249   -0.904090000000
 H    2.827066637981    2.134130006249    0.000000000000
 H    4.373036637981    1.750130006249    0.904090000000
 C    3.799866637981    1.551580006249    0.000000000000
 S    2.882466637981    0.000000006249    0.000000000000
 C    3.799866637981   -1.551579993751    0.000000000000
 H    4.373036637981   -1.750129993751    0.904090000000
 H    2.827066637981   -2.134129993751    0.000000000000
 H    4.373036637981   -1.750129993751   -0.904090000000
CS    0.003316637981   -3.219599993751    0.000000000000
CS    0.003316637981    3.219600006249    0.000000000000
 S   -2.896683362019    0.000000006249    0.000000000000
 C   -3.814079411163   -1.551576849409    0.000000000000
 H   -4.387251413313   -1.750132408995    0.904092118431
 H   -2.841278233963   -2.134126762925    0.000000000000
 H   -4.387251413313   -1.750132408995   -0.904092118431
 C   -3.814079681965    1.551576701791    0.000000000000
 H   -4.387251718768    1.750132161339   -0.904092118431
 H   -2.841278606438    2.134126785093    0.000000000000
 H   -4.387251718768    1.750132161339    0.904092118431
