20

 H    4.388945112764    1.750130006249   -0.904090000000
 H    2.842975112764    2.134130006249    0.000000000000
 H    4.388945112764    1.750130006249    0.904090000000
 C    3.815775112764    1.551580006249    0.000000000000
 S    2.898375112764    0.000000006249    0.000000000000
 C    3.815775112764   -1.551579993751    0.000000000000
 H    4.388945112764   -1.750129993751    0.904090000000
 H    2.842975112764   -2.134129993751    0.000000000000
 H    4.388945112764   -1.750129993751   -0.904090000000
CS    0.019225112764   -3.219599993751    0.000000000000
CS    0.019225112764    3.219600006249    0.000000000000
 S   -2.980774887236    0.000000006249    0.000000000000
 C   -3.898170936381   -1.551576849409    0.000000000000
 H   -4.471342938530   -1.750132408995    0.904092118431
 H   -2.925369759181   -2.134126762925    0.000000000000
 H   -4.471342938530   -1.750132408995   -0.904092118431
 C   -3.898171207182    1.551576701791    0.000000000000
 H   -4.471343243986    1.750132161339   -0.904092118431
 H   -2.925370131656    2.134126785093    0.000000000000
 H   -4.471343243986    1.750132161339    0.904092118431
