20

 H    4.404853587546    1.750130006249   -0.904090000000
 H    2.858883587546    2.134130006249    0.000000000000
 H    4.404853587546    1.750130006249    0.904090000000
 C    3.831683587546    1.551580006249    0.000000000000
 S    2.914283587546    0.000000006249    0.000000000000
 C    3.831683587546   -1.551579993751    0.000000000000
 H    4.404853587546   -1.750129993751    0.904090000000
 H    2.858883587546   -2.134129993751    0.000000000000
 H    4.404853587546   -1.750129993751   -0.904090000000
CS    0.035133587546   -3.219599993751    0.000000000000
CS    0.035133587546    3.219600006249    0.000000000000
 S   -3.064866412454    0.000000006249    0.000000000000
 C   -3.982262461599   -1.551576849409    0.000000000000
 H   -4.555434463748   -1.750132408995    0.904092118431
 H   -3.009461284399   -2.134126762925    0.000000000000
 H   -4.555434463748   -1.750132408995   -0.904092118431
 C   -3.982262732400    1.551576701791    0.000000000000
 H   -4.555434769204    1.750132161339   -0.904092118431
 H   -3.009461656874    2.134126785093    0.000000000000
 H   -4.555434769204    1.750132161339    0.904092118431
