20

 H    4.452579011893    1.750130006249   -0.904090000000
 H    2.906609011893    2.134130006249    0.000000000000
 H    4.452579011893    1.750130006249    0.904090000000
 C    3.879409011893    1.551580006249    0.000000000000
 S    2.962009011893    0.000000006249    0.000000000000
 C    3.879409011893   -1.551579993751    0.000000000000
 H    4.452579011893   -1.750129993751    0.904090000000
 H    2.906609011893   -2.134129993751    0.000000000000
 H    4.452579011893   -1.750129993751   -0.904090000000
CS    0.082859011893   -3.219599993751    0.000000000000
CS    0.082859011893    3.219600006249    0.000000000000
 S   -3.317140988107    0.000000006249    0.000000000000
 C   -4.234537037252   -1.551576849409    0.000000000000
 H   -4.807709039402   -1.750132408995    0.904092118431
 H   -3.261735860052   -2.134126762925    0.000000000000
 H   -4.807709039402   -1.750132408995   -0.904092118431
 C   -4.234537308054    1.551576701791    0.000000000000
 H   -4.807709344857    1.750132161339   -0.904092118431
 H   -3.261736232527    2.134126785093    0.000000000000
 H   -4.807709344857    1.750132161339    0.904092118431
