20

 H    4.516212911021    1.750130006249   -0.904090000000
 H    2.970242911021    2.134130006249    0.000000000000
 H    4.516212911021    1.750130006249    0.904090000000
 C    3.943042911021    1.551580006249    0.000000000000
 S    3.025642911021    0.000000006249    0.000000000000
 C    3.943042911021   -1.551579993751    0.000000000000
 H    4.516212911021   -1.750129993751    0.904090000000
 H    2.970242911021   -2.134129993751    0.000000000000
 H    4.516212911021   -1.750129993751   -0.904090000000
CS    0.146492911021   -3.219599993751    0.000000000000
CS    0.146492911021    3.219600006249    0.000000000000
 S   -3.653507088979    0.000000006249    0.000000000000
 C   -4.570903138123   -1.551576849409    0.000000000000
 H   -5.144075140273   -1.750132408995    0.904092118431
 H   -3.598101960923   -2.134126762925    0.000000000000
 H   -5.144075140273   -1.750132408995   -0.904092118431
 C   -4.570903408925    1.551576701791    0.000000000000
 H   -5.144075445728    1.750132161339   -0.904092118431
 H   -3.598102333398    2.134126785093    0.000000000000
 H   -5.144075445728    1.750132161339    0.904092118431
