20

 H    4.563938335368    1.750130006249   -0.904090000000
 H    3.017968335368    2.134130006249    0.000000000000
 H    4.563938335368    1.750130006249    0.904090000000
 C    3.990768335368    1.551580006249    0.000000000000
 S    3.073368335368    0.000000006249    0.000000000000
 C    3.990768335368   -1.551579993751    0.000000000000
 H    4.563938335368   -1.750129993751    0.904090000000
 H    3.017968335368   -2.134129993751    0.000000000000
 H    4.563938335368   -1.750129993751   -0.904090000000
CS    0.194218335368   -3.219599993751    0.000000000000
CS    0.194218335368    3.219600006249    0.000000000000
 S   -3.905781664632    0.000000006249    0.000000000000
 C   -4.823177713777   -1.551576849409    0.000000000000
 H   -5.396349715926   -1.750132408995    0.904092118431
 H   -3.850376536576   -2.134126762925    0.000000000000
 H   -5.396349715926   -1.750132408995   -0.904092118431
 C   -4.823177984578    1.551576701791    0.000000000000
 H   -5.396350021382    1.750132161339   -0.904092118431
 H   -3.850376909052    2.134126785093    0.000000000000
 H   -5.396350021382    1.750132161339    0.904092118431
