20

 H    4.579846810150    1.750130006249   -0.904090000000
 H    3.033876810150    2.134130006249    0.000000000000
 H    4.579846810150    1.750130006249    0.904090000000
 C    4.006676810150    1.551580006249    0.000000000000
 S    3.089276810150    0.000000006249    0.000000000000
 C    4.006676810150   -1.551579993751    0.000000000000
 H    4.579846810150   -1.750129993751    0.904090000000
 H    3.033876810150   -2.134129993751    0.000000000000
 H    4.579846810150   -1.750129993751   -0.904090000000
CS    0.210126810150   -3.219599993751    0.000000000000
CS    0.210126810150    3.219600006249    0.000000000000
 S   -3.989873189850    0.000000006249    0.000000000000
 C   -4.907269238995   -1.551576849409    0.000000000000
 H   -5.480441241144   -1.750132408995    0.904092118431
 H   -3.934468061794   -2.134126762925    0.000000000000
 H   -5.480441241144   -1.750132408995   -0.904092118431
 C   -4.907269509796    1.551576701791    0.000000000000
 H   -5.480441546599    1.750132161339   -0.904092118431
 H   -3.934468434270    2.134126785093    0.000000000000
 H   -5.480441546599    1.750132161339    0.904092118431
