20

 H    4.659389184061    1.750130006249   -0.904090000000
 H    3.113419184061    2.134130006249    0.000000000000
 H    4.659389184061    1.750130006249    0.904090000000
 C    4.086219184061    1.551580006249    0.000000000000
 S    3.168819184061    0.000000006249    0.000000000000
 C    4.086219184061   -1.551579993751    0.000000000000
 H    4.659389184061   -1.750129993751    0.904090000000
 H    3.113419184061   -2.134129993751    0.000000000000
 H    4.659389184061   -1.750129993751   -0.904090000000
CS    0.289669184061   -3.219599993751    0.000000000000
CS    0.289669184061    3.219600006249    0.000000000000
 S   -4.410330815939    0.000000006249    0.000000000000
 C   -5.327726865083   -1.551576849409    0.000000000000
 H   -5.900898867233   -1.750132408995    0.904092118431
 H   -4.354925687883   -2.134126762925    0.000000000000
 H   -5.900898867233   -1.750132408995   -0.904092118431
 C   -5.327727135885    1.551576701791    0.000000000000
 H   -5.900899172688    1.750132161339   -0.904092118431
 H   -4.354926060358    2.134126785093    0.000000000000
 H   -5.900899172688    1.750132161339    0.904092118431
