20

 H    4.675297658844    1.750130006249   -0.904090000000
 H    3.129327658844    2.134130006249    0.000000000000
 H    4.675297658844    1.750130006249    0.904090000000
 C    4.102127658844    1.551580006249    0.000000000000
 S    3.184727658844    0.000000006249    0.000000000000
 C    4.102127658844   -1.551579993751    0.000000000000
 H    4.675297658844   -1.750129993751    0.904090000000
 H    3.129327658844   -2.134129993751    0.000000000000
 H    4.675297658844   -1.750129993751   -0.904090000000
CS    0.305577658844   -3.219599993751    0.000000000000
CS    0.305577658844    3.219600006249    0.000000000000
 S   -4.494422341156    0.000000006249    0.000000000000
 C   -5.411818390301   -1.551576849409    0.000000000000
 H   -5.984990392450   -1.750132408995    0.904092118431
 H   -4.439017213101   -2.134126762925    0.000000000000
 H   -5.984990392450   -1.750132408995   -0.904092118431
 C   -5.411818661102    1.551576701791    0.000000000000
 H   -5.984990697906    1.750132161339   -0.904092118431
 H   -4.439017585576    2.134126785093    0.000000000000
 H   -5.984990697906    1.750132161339    0.904092118431
