20

 H    4.707114608408    1.750130006249   -0.904090000000
 H    3.161144608408    2.134130006249    0.000000000000
 H    4.707114608408    1.750130006249    0.904090000000
 C    4.133944608408    1.551580006249    0.000000000000
 S    3.216544608408    0.000000006249    0.000000000000
 C    4.133944608408   -1.551579993751    0.000000000000
 H    4.707114608408   -1.750129993751    0.904090000000
 H    3.161144608408   -2.134129993751    0.000000000000
 H    4.707114608408   -1.750129993751   -0.904090000000
CS    0.337394608408   -3.219599993751    0.000000000000
CS    0.337394608408    3.219600006249    0.000000000000
 S   -4.662605391592    0.000000006249    0.000000000000
 C   -5.580001440737   -1.551576849409    0.000000000000
 H   -6.153173442886   -1.750132408995    0.904092118431
 H   -4.607200263536   -2.134126762925    0.000000000000
 H   -6.153173442886   -1.750132408995   -0.904092118431
 C   -5.580001711538    1.551576701791    0.000000000000
 H   -6.153173748342    1.750132161339   -0.904092118431
 H   -4.607200636012    2.134126785093    0.000000000000
 H   -6.153173748342    1.750132161339    0.904092118431
