20

 H    4.723023083190    1.750130006249   -0.904090000000
 H    3.177053083190    2.134130006249    0.000000000000
 H    4.723023083190    1.750130006249    0.904090000000
 C    4.149853083190    1.551580006249    0.000000000000
 S    3.232453083190    0.000000006249    0.000000000000
 C    4.149853083190   -1.551579993751    0.000000000000
 H    4.723023083190   -1.750129993751    0.904090000000
 H    3.177053083190   -2.134129993751    0.000000000000
 H    4.723023083190   -1.750129993751   -0.904090000000
CS    0.353303083190   -3.219599993751    0.000000000000
CS    0.353303083190    3.219600006249    0.000000000000
 S   -4.746696916810    0.000000006249    0.000000000000
 C   -5.664092965955   -1.551576849409    0.000000000000
 H   -6.237264968104   -1.750132408995    0.904092118431
 H   -4.691291788754   -2.134126762925    0.000000000000
 H   -6.237264968104   -1.750132408995   -0.904092118431
 C   -5.664093236756    1.551576701791    0.000000000000
 H   -6.237265273559    1.750132161339   -0.904092118431
 H   -4.691292161230    2.134126785093    0.000000000000
 H   -6.237265273559    1.750132161339    0.904092118431
