20

 H    4.898016305795    1.750130006249   -0.904090000000
 H    3.352046305795    2.134130006249    0.000000000000
 H    4.898016305795    1.750130006249    0.904090000000
 C    4.324846305795    1.551580006249    0.000000000000
 S    3.407446305795    0.000000006249    0.000000000000
 C    4.324846305795   -1.551579993751    0.000000000000
 H    4.898016305795   -1.750129993751    0.904090000000
 H    3.352046305795   -2.134129993751    0.000000000000
 H    4.898016305795   -1.750129993751   -0.904090000000
CS    0.528296305795   -3.219599993751    0.000000000000
CS    0.528296305795    3.219600006249    0.000000000000
 S   -5.671703694205    0.000000006249    0.000000000000
 C   -6.589099743350   -1.551576849409    0.000000000000
 H   -7.162271745499   -1.750132408995    0.904092118431
 H   -5.616298566150   -2.134126762925    0.000000000000
 H   -7.162271745499   -1.750132408995   -0.904092118431
 C   -6.589100014151    1.551576701791    0.000000000000
 H   -7.162272050955    1.750132161339   -0.904092118431
 H   -5.616298938625    2.134126785093    0.000000000000
 H   -7.162272050955    1.750132161339    0.904092118431
