20

 H    4.913924780577    1.750130006249   -0.904090000000
 H    3.367954780577    2.134130006249    0.000000000000
 H    4.913924780577    1.750130006249    0.904090000000
 C    4.340754780577    1.551580006249    0.000000000000
 S    3.423354780577    0.000000006249    0.000000000000
 C    4.340754780577   -1.551579993751    0.000000000000
 H    4.913924780577   -1.750129993751    0.904090000000
 H    3.367954780577   -2.134129993751    0.000000000000
 H    4.913924780577   -1.750129993751   -0.904090000000
CS    0.544204780577   -3.219599993751    0.000000000000
CS    0.544204780577    3.219600006249    0.000000000000
 S   -5.755795219423    0.000000006249    0.000000000000
 C   -6.673191268568   -1.551576849409    0.000000000000
 H   -7.246363270717   -1.750132408995    0.904092118431
 H   -5.700390091367   -2.134126762925    0.000000000000
 H   -7.246363270717   -1.750132408995   -0.904092118431
 C   -6.673191539369    1.551576701791    0.000000000000
 H   -7.246363576173    1.750132161339   -0.904092118431
 H   -5.700390463843    2.134126785093    0.000000000000
 H   -7.246363576173    1.750132161339    0.904092118431
