20

 H    4.961650204924    1.750130006249   -0.904090000000
 H    3.415680204924    2.134130006249    0.000000000000
 H    4.961650204924    1.750130006249    0.904090000000
 C    4.388480204924    1.551580006249    0.000000000000
 S    3.471080204924    0.000000006249    0.000000000000
 C    4.388480204924   -1.551579993751    0.000000000000
 H    4.961650204924   -1.750129993751    0.904090000000
 H    3.415680204924   -2.134129993751    0.000000000000
 H    4.961650204924   -1.750129993751   -0.904090000000
CS    0.591930204924   -3.219599993751    0.000000000000
CS    0.591930204924    3.219600006249    0.000000000000
 S   -6.008069795076    0.000000006249    0.000000000000
 C   -6.925465844221   -1.551576849409    0.000000000000
 H   -7.498637846370   -1.750132408995    0.904092118431
 H   -5.952664667021   -2.134126762925    0.000000000000
 H   -7.498637846370   -1.750132408995   -0.904092118431
 C   -6.925466115022    1.551576701791    0.000000000000
 H   -7.498638151826    1.750132161339   -0.904092118431
 H   -5.952665039496    2.134126785093    0.000000000000
 H   -7.498638151826    1.750132161339    0.904092118431
