20

 H    5.057101053617    1.750130006249   -0.904090000000
 H    3.511131053617    2.134130006249    0.000000000000
 H    5.057101053617    1.750130006249    0.904090000000
 C    4.483931053617    1.551580006249    0.000000000000
 S    3.566531053617    0.000000006249    0.000000000000
 C    4.483931053617   -1.551579993751    0.000000000000
 H    5.057101053617   -1.750129993751    0.904090000000
 H    3.511131053617   -2.134129993751    0.000000000000
 H    5.057101053617   -1.750129993751   -0.904090000000
CS    0.687381053617   -3.219599993751    0.000000000000
CS    0.687381053617    3.219600006249    0.000000000000
 S   -6.512618946383    0.000000006249    0.000000000000
 C   -7.430014995528   -1.551576849409    0.000000000000
 H   -8.003186997677   -1.750132408995    0.904092118431
 H   -6.457213818327   -2.134126762925    0.000000000000
 H   -8.003186997677   -1.750132408995   -0.904092118431
 C   -7.430015266329    1.551576701791    0.000000000000
 H   -8.003187303133    1.750132161339   -0.904092118431
 H   -6.457214190803    2.134126785093    0.000000000000
 H   -8.003187303133    1.750132161339    0.904092118431
