20

 H    5.104826477964    1.750130006249   -0.904090000000
 H    3.558856477964    2.134130006249    0.000000000000
 H    5.104826477964    1.750130006249    0.904090000000
 C    4.531656477964    1.551580006249    0.000000000000
 S    3.614256477964    0.000000006249    0.000000000000
 C    4.531656477964   -1.551579993751    0.000000000000
 H    5.104826477964   -1.750129993751    0.904090000000
 H    3.558856477964   -2.134129993751    0.000000000000
 H    5.104826477964   -1.750129993751   -0.904090000000
CS    0.735106477964   -3.219599993751    0.000000000000
CS    0.735106477964    3.219600006249    0.000000000000
 S   -6.764893522036    0.000000006249    0.000000000000
 C   -7.682289571181   -1.551576849409    0.000000000000
 H   -8.255461573330   -1.750132408995    0.904092118431
 H   -6.709488393981   -2.134126762925    0.000000000000
 H   -8.255461573330   -1.750132408995   -0.904092118431
 C   -7.682289841982    1.551576701791    0.000000000000
 H   -8.255461878786    1.750132161339   -0.904092118431
 H   -6.709488766456    2.134126785093    0.000000000000
 H   -8.255461878786    1.750132161339    0.904092118431
