20

 H    5.120734952746    1.750130006249   -0.904090000000
 H    3.574764952746    2.134130006249    0.000000000000
 H    5.120734952746    1.750130006249    0.904090000000
 C    4.547564952746    1.551580006249    0.000000000000
 S    3.630164952746    0.000000006249    0.000000000000
 C    4.547564952746   -1.551579993751    0.000000000000
 H    5.120734952746   -1.750129993751    0.904090000000
 H    3.574764952746   -2.134129993751    0.000000000000
 H    5.120734952746   -1.750129993751   -0.904090000000
CS    0.751014952746   -3.219599993751    0.000000000000
CS    0.751014952746    3.219600006249    0.000000000000
 S   -6.848985047254    0.000000006249    0.000000000000
 C   -7.766381096399   -1.551576849409    0.000000000000
 H   -8.339553098548   -1.750132408995    0.904092118431
 H   -6.793579919199   -2.134126762925    0.000000000000
 H   -8.339553098548   -1.750132408995   -0.904092118431
 C   -7.766381367200    1.551576701791    0.000000000000
 H   -8.339553404004    1.750132161339   -0.904092118431
 H   -6.793580291674    2.134126785093    0.000000000000
 H   -8.339553404004    1.750132161339    0.904092118431
