20

 H    5.136643427528    1.750130006249   -0.904090000000
 H    3.590673427528    2.134130006249    0.000000000000
 H    5.136643427528    1.750130006249    0.904090000000
 C    4.563473427528    1.551580006249    0.000000000000
 S    3.646073427528    0.000000006249    0.000000000000
 C    4.563473427528   -1.551579993751    0.000000000000
 H    5.136643427528   -1.750129993751    0.904090000000
 H    3.590673427528   -2.134129993751    0.000000000000
 H    5.136643427528   -1.750129993751   -0.904090000000
CS    0.766923427528   -3.219599993751    0.000000000000
CS    0.766923427528    3.219600006249    0.000000000000
 S   -6.933076572472    0.000000006249    0.000000000000
 C   -7.850472621617   -1.551576849409    0.000000000000
 H   -8.423644623766   -1.750132408995    0.904092118431
 H   -6.877671444416   -2.134126762925    0.000000000000
 H   -8.423644623766   -1.750132408995   -0.904092118431
 C   -7.850472892418    1.551576701791    0.000000000000
 H   -8.423644929222    1.750132161339   -0.904092118431
 H   -6.877671816892    2.134126785093    0.000000000000
 H   -8.423644929222    1.750132161339    0.904092118431
