20

 H    5.184368851875    1.750130006249   -0.904090000000
 H    3.638398851875    2.134130006249    0.000000000000
 H    5.184368851875    1.750130006249    0.904090000000
 C    4.611198851875    1.551580006249    0.000000000000
 S    3.693798851875    0.000000006249    0.000000000000
 C    4.611198851875   -1.551579993751    0.000000000000
 H    5.184368851875   -1.750129993751    0.904090000000
 H    3.638398851875   -2.134129993751    0.000000000000
 H    5.184368851875   -1.750129993751   -0.904090000000
CS    0.814648851875   -3.219599993751    0.000000000000
CS    0.814648851875    3.219600006249    0.000000000000
 S   -7.185351148125    0.000000006249    0.000000000000
 C   -8.102747197270   -1.551576849409    0.000000000000
 H   -8.675919199419   -1.750132408995    0.904092118431
 H   -7.129946020070   -2.134126762925    0.000000000000
 H   -8.675919199419   -1.750132408995   -0.904092118431
 C   -8.102747468071    1.551576701791    0.000000000000
 H   -8.675919504875    1.750132161339   -0.904092118431
 H   -7.129946392545    2.134126785093    0.000000000000
 H   -8.675919504875    1.750132161339    0.904092118431
