20

 H    5.200277326657    1.750130006249   -0.904090000000
 H    3.654307326657    2.134130006249    0.000000000000
 H    5.200277326657    1.750130006249    0.904090000000
 C    4.627107326657    1.551580006249    0.000000000000
 S    3.709707326657    0.000000006249    0.000000000000
 C    4.627107326657   -1.551579993751    0.000000000000
 H    5.200277326657   -1.750129993751    0.904090000000
 H    3.654307326657   -2.134129993751    0.000000000000
 H    5.200277326657   -1.750129993751   -0.904090000000
CS    0.830557326657   -3.219599993751    0.000000000000
CS    0.830557326657    3.219600006249    0.000000000000
 S   -7.269442673343    0.000000006249    0.000000000000
 C   -8.186838722488   -1.551576849409    0.000000000000
 H   -8.760010724637   -1.750132408995    0.904092118431
 H   -7.214037545287   -2.134126762925    0.000000000000
 H   -8.760010724637   -1.750132408995   -0.904092118431
 C   -8.186838993289    1.551576701791    0.000000000000
 H   -8.760011030093    1.750132161339   -0.904092118431
 H   -7.214037917763    2.134126785093    0.000000000000
 H   -8.760011030093    1.750132161339    0.904092118431
