20

 H    5.248002751004    1.750130006249   -0.904090000000
 H    3.702032751004    2.134130006249    0.000000000000
 H    5.248002751004    1.750130006249    0.904090000000
 C    4.674832751004    1.551580006249    0.000000000000
 S    3.757432751004    0.000000006249    0.000000000000
 C    4.674832751004   -1.551579993751    0.000000000000
 H    5.248002751004   -1.750129993751    0.904090000000
 H    3.702032751004   -2.134129993751    0.000000000000
 H    5.248002751004   -1.750129993751   -0.904090000000
CS    0.878282751004   -3.219599993751    0.000000000000
CS    0.878282751004    3.219600006249    0.000000000000
 S   -7.521717248996    0.000000006249    0.000000000000
 C   -8.439113298141   -1.551576849409    0.000000000000
 H   -9.012285300290   -1.750132408995    0.904092118431
 H   -7.466312120941   -2.134126762925    0.000000000000
 H   -9.012285300290   -1.750132408995   -0.904092118431
 C   -8.439113568942    1.551576701791    0.000000000000
 H   -9.012285605746    1.750132161339   -0.904092118431
 H   -7.466312493416    2.134126785093    0.000000000000
 H   -9.012285605746    1.750132161339    0.904092118431
