20

 H    5.263911225786    1.750130006249   -0.904090000000
 H    3.717941225786    2.134130006249    0.000000000000
 H    5.263911225786    1.750130006249    0.904090000000
 C    4.690741225786    1.551580006249    0.000000000000
 S    3.773341225786    0.000000006249    0.000000000000
 C    4.690741225786   -1.551579993751    0.000000000000
 H    5.263911225786   -1.750129993751    0.904090000000
 H    3.717941225786   -2.134129993751    0.000000000000
 H    5.263911225786   -1.750129993751   -0.904090000000
CS    0.894191225786   -3.219599993751    0.000000000000
CS    0.894191225786    3.219600006249    0.000000000000
 S   -7.605808774214    0.000000006249    0.000000000000
 C   -8.523204823359   -1.551576849409    0.000000000000
 H   -9.096376825508   -1.750132408995    0.904092118431
 H   -7.550403646159   -2.134126762925    0.000000000000
 H   -9.096376825508   -1.750132408995   -0.904092118431
 C   -8.523205094160    1.551576701791    0.000000000000
 H   -9.096377130964    1.750132161339   -0.904092118431
 H   -7.550404018634    2.134126785093    0.000000000000
 H   -9.096377130964    1.750132161339    0.904092118431
