20

 H    5.311636650133    1.750130006249   -0.904090000000
 H    3.765666650133    2.134130006249    0.000000000000
 H    5.311636650133    1.750130006249    0.904090000000
 C    4.738466650133    1.551580006249    0.000000000000
 S    3.821066650133    0.000000006249    0.000000000000
 C    4.738466650133   -1.551579993751    0.000000000000
 H    5.311636650133   -1.750129993751    0.904090000000
 H    3.765666650133   -2.134129993751    0.000000000000
 H    5.311636650133   -1.750129993751   -0.904090000000
CS    0.941916650133   -3.219599993751    0.000000000000
CS    0.941916650133    3.219600006249    0.000000000000
 S   -7.858083349867    0.000000006249    0.000000000000
 C   -8.775479399012   -1.551576849409    0.000000000000
 H   -9.348651401162   -1.750132408995    0.904092118431
 H   -7.802678221812   -2.134126762925    0.000000000000
 H   -9.348651401162   -1.750132408995   -0.904092118431
 C   -8.775479669814    1.551576701791    0.000000000000
 H   -9.348651706617    1.750132161339   -0.904092118431
 H   -7.802678594287    2.134126785093    0.000000000000
 H   -9.348651706617    1.750132161339    0.904092118431
