20

 H    5.407087498826    1.750130006249   -0.904090000000
 H    3.861117498826    2.134130006249    0.000000000000
 H    5.407087498826    1.750130006249    0.904090000000
 C    4.833917498826    1.551580006249    0.000000000000
 S    3.916517498826    0.000000006249    0.000000000000
 C    4.833917498826   -1.551579993751    0.000000000000
 H    5.407087498826   -1.750129993751    0.904090000000
 H    3.861117498826   -2.134129993751    0.000000000000
 H    5.407087498826   -1.750129993751   -0.904090000000
CS    1.037367498826   -3.219599993751    0.000000000000
CS    1.037367498826    3.219600006249    0.000000000000
 S   -8.362632501174    0.000000006249    0.000000000000
 C   -9.280028550319   -1.551576849409    0.000000000000
 H   -9.853200552468   -1.750132408995    0.904092118431
 H   -8.307227373119   -2.134126762925    0.000000000000
 H   -9.853200552468   -1.750132408995   -0.904092118431
 C   -9.280028821120    1.551576701791    0.000000000000
 H   -9.853200857924    1.750132161339   -0.904092118431
 H   -8.307227745594    2.134126785093    0.000000000000
 H   -9.853200857924    1.750132161339    0.904092118431
