20

 H    5.438904448390    1.750130006249   -0.904090000000
 H    3.892934448390    2.134130006249    0.000000000000
 H    5.438904448390    1.750130006249    0.904090000000
 C    4.865734448390    1.551580006249    0.000000000000
 S    3.948334448390    0.000000006249    0.000000000000
 C    4.865734448390   -1.551579993751    0.000000000000
 H    5.438904448390   -1.750129993751    0.904090000000
 H    3.892934448390   -2.134129993751    0.000000000000
 H    5.438904448390   -1.750129993751   -0.904090000000
CS    1.069184448390   -3.219599993751    0.000000000000
CS    1.069184448390    3.219600006249    0.000000000000
 S   -8.530815551610    0.000000006249    0.000000000000
 C   -9.448211600755   -1.551576849409    0.000000000000
 H  -10.021383602904   -1.750132408995    0.904092118431
 H   -8.475410423554   -2.134126762925    0.000000000000
 H  -10.021383602904   -1.750132408995   -0.904092118431
 C   -9.448211871556    1.551576701791    0.000000000000
 H  -10.021383908359    1.750132161339   -0.904092118431
 H   -8.475410796030    2.134126785093    0.000000000000
 H  -10.021383908359    1.750132161339    0.904092118431
