20

 H    5.454812923173    1.750130006249   -0.904090000000
 H    3.908842923173    2.134130006249    0.000000000000
 H    5.454812923173    1.750130006249    0.904090000000
 C    4.881642923173    1.551580006249    0.000000000000
 S    3.964242923173    0.000000006249    0.000000000000
 C    4.881642923173   -1.551579993751    0.000000000000
 H    5.454812923173   -1.750129993751    0.904090000000
 H    3.908842923173   -2.134129993751    0.000000000000
 H    5.454812923173   -1.750129993751   -0.904090000000
CS    1.085092923173   -3.219599993751    0.000000000000
CS    1.085092923173    3.219600006249    0.000000000000
 S   -8.614907076827    0.000000006249    0.000000000000
 C   -9.532303125972   -1.551576849409    0.000000000000
 H  -10.105475128122   -1.750132408995    0.904092118431
 H   -8.559501948772   -2.134126762925    0.000000000000
 H  -10.105475128122   -1.750132408995   -0.904092118431
 C   -9.532303396774    1.551576701791    0.000000000000
 H  -10.105475433577    1.750132161339   -0.904092118431
 H   -8.559502321247    2.134126785093    0.000000000000
 H  -10.105475433577    1.750132161339    0.904092118431
