20

 H    5.470721397955    1.750130006249   -0.904090000000
 H    3.924751397955    2.134130006249    0.000000000000
 H    5.470721397955    1.750130006249    0.904090000000
 C    4.897551397955    1.551580006249    0.000000000000
 S    3.980151397955    0.000000006249    0.000000000000
 C    4.897551397955   -1.551579993751    0.000000000000
 H    5.470721397955   -1.750129993751    0.904090000000
 H    3.924751397955   -2.134129993751    0.000000000000
 H    5.470721397955   -1.750129993751   -0.904090000000
CS    1.101001397955   -3.219599993751    0.000000000000
CS    1.101001397955    3.219600006249    0.000000000000
 S   -8.698998602045    0.000000006249    0.000000000000
 C   -9.616394651190   -1.551576849409    0.000000000000
 H  -10.189566653339   -1.750132408995    0.904092118431
 H   -8.643593473990   -2.134126762925    0.000000000000
 H  -10.189566653339   -1.750132408995   -0.904092118431
 C   -9.616394921991    1.551576701791    0.000000000000
 H  -10.189566958795    1.750132161339   -0.904092118431
 H   -8.643593846465    2.134126785093    0.000000000000
 H  -10.189566958795    1.750132161339    0.904092118431
