13

 C   -2.904488336967    0.000000090911    0.000000000000
 H   -4.000006336967    0.000000090911    0.000000000000
 C   -2.173021336967    1.209982090911    0.000000000000
 H   -2.710904336967    2.168601090911    0.000000000000
 C   -2.173021336967   -1.209982909089    0.000000000000
 H   -2.710903336967   -2.168601909089    0.000000000000
 C   -0.767851336967    1.215097090911    0.000000000000
 H   -0.221221336967    2.167255090911    0.000000000000
 C   -0.767851336967   -1.215096909089    0.000000000000
 H   -0.221221336967   -2.167253909089    0.000000000000
 C    0.027185663033    0.000000090911    0.000000000000
 O    1.313532663033    0.000000090911    0.000000000000
 K    2.413532663033    0.000000090911    0.000000000000
