13

 C   -3.140636044566    0.000000090911    0.000000000000
 H   -4.236154044566    0.000000090911    0.000000000000
 C   -2.409169044566    1.209982090911    0.000000000000
 H   -2.947052044566    2.168601090911    0.000000000000
 C   -2.409169044566   -1.209982909089    0.000000000000
 H   -2.947051044566   -2.168601909089    0.000000000000
 C   -1.003999044566    1.215097090911    0.000000000000
 H   -0.457369044566    2.167255090911    0.000000000000
 C   -1.003999044566   -1.215096909089    0.000000000000
 H   -0.457369044566   -2.167253909089    0.000000000000
 C   -0.208962044566    0.000000090911    0.000000000000
 O    1.077384955434    0.000000090911    0.000000000000
 K    2.977384955434    0.000000090911    0.000000000000
