13

 C   -5.531631583998    0.000000090911    0.000000000000
 H   -6.627149583998    0.000000090911    0.000000000000
 C   -4.800164583998    1.209982090911    0.000000000000
 H   -5.338047583998    2.168601090911    0.000000000000
 C   -4.800164583998   -1.209982909089    0.000000000000
 H   -5.338046583998   -2.168601909089    0.000000000000
 C   -3.394994583998    1.215097090911    0.000000000000
 H   -2.848364583998    2.167255090911    0.000000000000
 C   -3.394994583998   -1.215096909089    0.000000000000
 H   -2.848364583998   -2.167253909089    0.000000000000
 C   -2.599957583998    0.000000090911    0.000000000000
 O   -1.313610583998    0.000000090911    0.000000000000
 K    8.686389416002    0.000000090911    0.000000000000
