13

 C   -3.170154508015    0.000000090911    0.000000000000
 H   -4.265672508015    0.000000090911    0.000000000000
 C   -2.438687508015    1.209982090911    0.000000000000
 H   -2.976570508015    2.168601090911    0.000000000000
 C   -2.438687508015   -1.209982909089    0.000000000000
 H   -2.976569508015   -2.168601909089    0.000000000000
 C   -1.033517508015    1.215097090911    0.000000000000
 H   -0.486887508015    2.167255090911    0.000000000000
 C   -1.033517508015   -1.215096909089    0.000000000000
 H   -0.486887508015   -2.167253909089    0.000000000000
 C   -0.238480508015    0.000000090911    0.000000000000
 O    1.047866491985    0.000000090911    0.000000000000
 K    3.047866491985    0.000000090911    0.000000000000
