13

 C   -3.229191434915    0.000000090911    0.000000000000
 H   -4.324709434915    0.000000090911    0.000000000000
 C   -2.497724434915    1.209982090911    0.000000000000
 H   -3.035607434915    2.168601090911    0.000000000000
 C   -2.497724434915   -1.209982909089    0.000000000000
 H   -3.035606434915   -2.168601909089    0.000000000000
 C   -1.092554434915    1.215097090911    0.000000000000
 H   -0.545924434915    2.167255090911    0.000000000000
 C   -1.092554434915   -1.215096909089    0.000000000000
 H   -0.545924434915   -2.167253909089    0.000000000000
 C   -0.297517434915    0.000000090911    0.000000000000
 O    0.988829565085    0.000000090911    0.000000000000
 K    3.188829565085    0.000000090911    0.000000000000
