13

 C   -3.258709898365    0.000000090911    0.000000000000
 H   -4.354227898365    0.000000090911    0.000000000000
 C   -2.527242898365    1.209982090911    0.000000000000
 H   -3.065125898365    2.168601090911    0.000000000000
 C   -2.527242898365   -1.209982909089    0.000000000000
 H   -3.065124898365   -2.168601909089    0.000000000000
 C   -1.122072898365    1.215097090911    0.000000000000
 H   -0.575442898365    2.167255090911    0.000000000000
 C   -1.122072898365   -1.215096909089    0.000000000000
 H   -0.575442898365   -2.167253909089    0.000000000000
 C   -0.327035898365    0.000000090911    0.000000000000
 O    0.959311101635    0.000000090911    0.000000000000
 K    3.259311101635    0.000000090911    0.000000000000
