13

 C   -3.406302215614    0.000000090911    0.000000000000
 H   -4.501820215614    0.000000090911    0.000000000000
 C   -2.674835215614    1.209982090911    0.000000000000
 H   -3.212718215614    2.168601090911    0.000000000000
 C   -2.674835215614   -1.209982909089    0.000000000000
 H   -3.212717215614   -2.168601909089    0.000000000000
 C   -1.269665215614    1.215097090911    0.000000000000
 H   -0.723035215614    2.167255090911    0.000000000000
 C   -1.269665215614   -1.215096909089    0.000000000000
 H   -0.723035215614   -2.167253909089    0.000000000000
 C   -0.474628215614    0.000000090911    0.000000000000
 O    0.811718784386    0.000000090911    0.000000000000
 K    3.611718784386    0.000000090911    0.000000000000
