13

 C   -3.435820679063    0.000000090911    0.000000000000
 H   -4.531338679063    0.000000090911    0.000000000000
 C   -2.704353679063    1.209982090911    0.000000000000
 H   -3.242236679063    2.168601090911    0.000000000000
 C   -2.704353679063   -1.209982909089    0.000000000000
 H   -3.242235679063   -2.168601909089    0.000000000000
 C   -1.299183679063    1.215097090911    0.000000000000
 H   -0.752553679063    2.167255090911    0.000000000000
 C   -1.299183679063   -1.215096909089    0.000000000000
 H   -0.752553679063   -2.167253909089    0.000000000000
 C   -0.504146679063    0.000000090911    0.000000000000
 O    0.782200320937    0.000000090911    0.000000000000
 K    3.682200320937    0.000000090911    0.000000000000
