13

 C   -3.465339142513    0.000000090911    0.000000000000
 H   -4.560857142513    0.000000090911    0.000000000000
 C   -2.733872142513    1.209982090911    0.000000000000
 H   -3.271755142513    2.168601090911    0.000000000000
 C   -2.733872142513   -1.209982909089    0.000000000000
 H   -3.271754142513   -2.168601909089    0.000000000000
 C   -1.328702142513    1.215097090911    0.000000000000
 H   -0.782072142513    2.167255090911    0.000000000000
 C   -1.328702142513   -1.215096909089    0.000000000000
 H   -0.782072142513   -2.167253909089    0.000000000000
 C   -0.533665142513    0.000000090911    0.000000000000
 O    0.752681857487    0.000000090911    0.000000000000
 K    3.752681857487    0.000000090911    0.000000000000
