13

 C   -3.553894532863    0.000000090911    0.000000000000
 H   -4.649412532863    0.000000090911    0.000000000000
 C   -2.822427532863    1.209982090911    0.000000000000
 H   -3.360310532863    2.168601090911    0.000000000000
 C   -2.822427532863   -1.209982909089    0.000000000000
 H   -3.360309532863   -2.168601909089    0.000000000000
 C   -1.417257532863    1.215097090911    0.000000000000
 H   -0.870627532863    2.167255090911    0.000000000000
 C   -1.417257532863   -1.215096909089    0.000000000000
 H   -0.870627532863   -2.167253909089    0.000000000000
 C   -0.622220532863    0.000000090911    0.000000000000
 O    0.664126467137    0.000000090911    0.000000000000
 K    3.964126467137    0.000000090911    0.000000000000
