13

 C   -3.583412996312    0.000000090911    0.000000000000
 H   -4.678930996312    0.000000090911    0.000000000000
 C   -2.851945996312    1.209982090911    0.000000000000
 H   -3.389828996312    2.168601090911    0.000000000000
 C   -2.851945996312   -1.209982909089    0.000000000000
 H   -3.389827996312   -2.168601909089    0.000000000000
 C   -1.446775996312    1.215097090911    0.000000000000
 H   -0.900145996312    2.167255090911    0.000000000000
 C   -1.446775996312   -1.215096909089    0.000000000000
 H   -0.900145996312   -2.167253909089    0.000000000000
 C   -0.651738996312    0.000000090911    0.000000000000
 O    0.634608003688    0.000000090911    0.000000000000
 K    4.034608003688    0.000000090911    0.000000000000
