13

 C   -3.671968386662    0.000000090911    0.000000000000
 H   -4.767486386662    0.000000090911    0.000000000000
 C   -2.940501386662    1.209982090911    0.000000000000
 H   -3.478384386662    2.168601090911    0.000000000000
 C   -2.940501386662   -1.209982909089    0.000000000000
 H   -3.478383386662   -2.168601909089    0.000000000000
 C   -1.535331386662    1.215097090911    0.000000000000
 H   -0.988701386662    2.167255090911    0.000000000000
 C   -1.535331386662   -1.215096909089    0.000000000000
 H   -0.988701386662   -2.167253909089    0.000000000000
 C   -0.740294386662    0.000000090911    0.000000000000
 O    0.546052613338    0.000000090911    0.000000000000
 K    4.246052613338    0.000000090911    0.000000000000
