13

 C   -3.701486850112    0.000000090911    0.000000000000
 H   -4.797004850112    0.000000090911    0.000000000000
 C   -2.970019850112    1.209982090911    0.000000000000
 H   -3.507902850112    2.168601090911    0.000000000000
 C   -2.970019850112   -1.209982909089    0.000000000000
 H   -3.507901850112   -2.168601909089    0.000000000000
 C   -1.564849850112    1.215097090911    0.000000000000
 H   -1.018219850112    2.167255090911    0.000000000000
 C   -1.564849850112   -1.215096909089    0.000000000000
 H   -1.018219850112   -2.167253909089    0.000000000000
 C   -0.769812850112    0.000000090911    0.000000000000
 O    0.516534149888    0.000000090911    0.000000000000
 K    4.316534149888    0.000000090911    0.000000000000
