13

 C   -3.760523777011    0.000000090911    0.000000000000
 H   -4.856041777011    0.000000090911    0.000000000000
 C   -3.029056777011    1.209982090911    0.000000000000
 H   -3.566939777011    2.168601090911    0.000000000000
 C   -3.029056777011   -1.209982909089    0.000000000000
 H   -3.566938777011   -2.168601909089    0.000000000000
 C   -1.623886777011    1.215097090911    0.000000000000
 H   -1.077256777011    2.167255090911    0.000000000000
 C   -1.623886777011   -1.215096909089    0.000000000000
 H   -1.077256777011   -2.167253909089    0.000000000000
 C   -0.828849777011    0.000000090911    0.000000000000
 O    0.457497222989    0.000000090911    0.000000000000
 K    4.457497222989    0.000000090911    0.000000000000
