13

 C   -3.790042240461    0.000000090911    0.000000000000
 H   -4.885560240461    0.000000090911    0.000000000000
 C   -3.058575240461    1.209982090911    0.000000000000
 H   -3.596458240461    2.168601090911    0.000000000000
 C   -3.058575240461   -1.209982909089    0.000000000000
 H   -3.596457240461   -2.168601909089    0.000000000000
 C   -1.653405240461    1.215097090911    0.000000000000
 H   -1.106775240461    2.167255090911    0.000000000000
 C   -1.653405240461   -1.215096909089    0.000000000000
 H   -1.106775240461   -2.167253909089    0.000000000000
 C   -0.858368240461    0.000000090911    0.000000000000
 O    0.427978759539    0.000000090911    0.000000000000
 K    4.527978759539    0.000000090911    0.000000000000
