13

 C   -3.819560703911    0.000000090911    0.000000000000
 H   -4.915078703911    0.000000090911    0.000000000000
 C   -3.088093703911    1.209982090911    0.000000000000
 H   -3.625976703911    2.168601090911    0.000000000000
 C   -3.088093703911   -1.209982909089    0.000000000000
 H   -3.625975703911   -2.168601909089    0.000000000000
 C   -1.682923703911    1.215097090911    0.000000000000
 H   -1.136293703911    2.167255090911    0.000000000000
 C   -1.682923703911   -1.215096909089    0.000000000000
 H   -1.136293703911   -2.167253909089    0.000000000000
 C   -0.887886703911    0.000000090911    0.000000000000
 O    0.398460296089    0.000000090911    0.000000000000
 K    4.598460296089    0.000000090911    0.000000000000
