13

 C   -4.203300728758    0.000000090911    0.000000000000
 H   -5.298818728758    0.000000090911    0.000000000000
 C   -3.471833728758    1.209982090911    0.000000000000
 H   -4.009716728758    2.168601090911    0.000000000000
 C   -3.471833728758   -1.209982909089    0.000000000000
 H   -4.009715728758   -2.168601909089    0.000000000000
 C   -2.066663728758    1.215097090911    0.000000000000
 H   -1.520033728758    2.167255090911    0.000000000000
 C   -2.066663728758   -1.215096909089    0.000000000000
 H   -1.520033728758   -2.167253909089    0.000000000000
 C   -1.271626728758    0.000000090911    0.000000000000
 O    0.014720271242    0.000000090911    0.000000000000
 K    5.514720271242    0.000000090911    0.000000000000
