13

 C   -4.232819192208    0.000000090911    0.000000000000
 H   -5.328337192208    0.000000090911    0.000000000000
 C   -3.501352192208    1.209982090911    0.000000000000
 H   -4.039235192208    2.168601090911    0.000000000000
 C   -3.501352192208   -1.209982909089    0.000000000000
 H   -4.039234192208   -2.168601909089    0.000000000000
 C   -2.096182192208    1.215097090911    0.000000000000
 H   -1.549552192208    2.167255090911    0.000000000000
 C   -2.096182192208   -1.215096909089    0.000000000000
 H   -1.549552192208   -2.167253909089    0.000000000000
 C   -1.301145192208    0.000000090911    0.000000000000
 O   -0.014798192208    0.000000090911    0.000000000000
 K    5.585201807792    0.000000090911    0.000000000000
