13

 C   -4.350893046007    0.000000090911    0.000000000000
 H   -5.446411046007    0.000000090911    0.000000000000
 C   -3.619426046007    1.209982090911    0.000000000000
 H   -4.157309046007    2.168601090911    0.000000000000
 C   -3.619426046007   -1.209982909089    0.000000000000
 H   -4.157308046007   -2.168601909089    0.000000000000
 C   -2.214256046007    1.215097090911    0.000000000000
 H   -1.667626046007    2.167255090911    0.000000000000
 C   -2.214256046007   -1.215096909089    0.000000000000
 H   -1.667626046007   -2.167253909089    0.000000000000
 C   -1.419219046007    0.000000090911    0.000000000000
 O   -0.132872046007    0.000000090911    0.000000000000
 K    5.867127953993    0.000000090911    0.000000000000
