13

 C   -4.498485363256    0.000000090911    0.000000000000
 H   -5.594003363256    0.000000090911    0.000000000000
 C   -3.767018363256    1.209982090911    0.000000000000
 H   -4.304901363256    2.168601090911    0.000000000000
 C   -3.767018363256   -1.209982909089    0.000000000000
 H   -4.304900363256   -2.168601909089    0.000000000000
 C   -2.361848363256    1.215097090911    0.000000000000
 H   -1.815218363256    2.167255090911    0.000000000000
 C   -2.361848363256   -1.215096909089    0.000000000000
 H   -1.815218363256   -2.167253909089    0.000000000000
 C   -1.566811363256    0.000000090911    0.000000000000
 O   -0.280464363256    0.000000090911    0.000000000000
 K    6.219535636744    0.000000090911    0.000000000000
