13

 C   -4.646077680505    0.000000090911    0.000000000000
 H   -5.741595680505    0.000000090911    0.000000000000
 C   -3.914610680505    1.209982090911    0.000000000000
 H   -4.452493680505    2.168601090911    0.000000000000
 C   -3.914610680505   -1.209982909089    0.000000000000
 H   -4.452492680505   -2.168601909089    0.000000000000
 C   -2.509440680505    1.215097090911    0.000000000000
 H   -1.962810680505    2.167255090911    0.000000000000
 C   -2.509440680505   -1.215096909089    0.000000000000
 H   -1.962810680505   -2.167253909089    0.000000000000
 C   -1.714403680505    0.000000090911    0.000000000000
 O   -0.428056680505    0.000000090911    0.000000000000
 K    6.571943319495    0.000000090911    0.000000000000
