13

 C   -4.793669997754    0.000000090911    0.000000000000
 H   -5.889187997754    0.000000090911    0.000000000000
 C   -4.062202997754    1.209982090911    0.000000000000
 H   -4.600085997754    2.168601090911    0.000000000000
 C   -4.062202997754   -1.209982909089    0.000000000000
 H   -4.600084997754   -2.168601909089    0.000000000000
 C   -2.657032997754    1.215097090911    0.000000000000
 H   -2.110402997754    2.167255090911    0.000000000000
 C   -2.657032997754   -1.215096909089    0.000000000000
 H   -2.110402997754   -2.167253909089    0.000000000000
 C   -1.861995997754    0.000000090911    0.000000000000
 O   -0.575648997754    0.000000090911    0.000000000000
 K    6.924351002246    0.000000090911    0.000000000000
