13

 C   -4.852706924653    0.000000090911    0.000000000000
 H   -5.948224924653    0.000000090911    0.000000000000
 C   -4.121239924653    1.209982090911    0.000000000000
 H   -4.659122924653    2.168601090911    0.000000000000
 C   -4.121239924653   -1.209982909089    0.000000000000
 H   -4.659121924653   -2.168601909089    0.000000000000
 C   -2.716069924653    1.215097090911    0.000000000000
 H   -2.169439924653    2.167255090911    0.000000000000
 C   -2.716069924653   -1.215096909089    0.000000000000
 H   -2.169439924653   -2.167253909089    0.000000000000
 C   -1.921032924653    0.000000090911    0.000000000000
 O   -0.634685924653    0.000000090911    0.000000000000
 K    7.065314075347    0.000000090911    0.000000000000
