13

 C   -4.882225388103    0.000000090911    0.000000000000
 H   -5.977743388103    0.000000090911    0.000000000000
 C   -4.150758388103    1.209982090911    0.000000000000
 H   -4.688641388103    2.168601090911    0.000000000000
 C   -4.150758388103   -1.209982909089    0.000000000000
 H   -4.688640388103   -2.168601909089    0.000000000000
 C   -2.745588388103    1.215097090911    0.000000000000
 H   -2.198958388103    2.167255090911    0.000000000000
 C   -2.745588388103   -1.215096909089    0.000000000000
 H   -2.198958388103   -2.167253909089    0.000000000000
 C   -1.950551388103    0.000000090911    0.000000000000
 O   -0.664204388103    0.000000090911    0.000000000000
 K    7.135795611897    0.000000090911    0.000000000000
