13

 C   -4.911743851553    0.000000090911    0.000000000000
 H   -6.007261851553    0.000000090911    0.000000000000
 C   -4.180276851553    1.209982090911    0.000000000000
 H   -4.718159851553    2.168601090911    0.000000000000
 C   -4.180276851553   -1.209982909089    0.000000000000
 H   -4.718158851553   -2.168601909089    0.000000000000
 C   -2.775106851553    1.215097090911    0.000000000000
 H   -2.228476851553    2.167255090911    0.000000000000
 C   -2.775106851553   -1.215096909089    0.000000000000
 H   -2.228476851553   -2.167253909089    0.000000000000
 C   -1.980069851553    0.000000090911    0.000000000000
 O   -0.693722851553    0.000000090911    0.000000000000
 K    7.206277148447    0.000000090911    0.000000000000
