13

 C   -4.970780778452    0.000000090911    0.000000000000
 H   -6.066298778452    0.000000090911    0.000000000000
 C   -4.239313778452    1.209982090911    0.000000000000
 H   -4.777196778452    2.168601090911    0.000000000000
 C   -4.239313778452   -1.209982909089    0.000000000000
 H   -4.777195778452   -2.168601909089    0.000000000000
 C   -2.834143778452    1.215097090911    0.000000000000
 H   -2.287513778452    2.167255090911    0.000000000000
 C   -2.834143778452   -1.215096909089    0.000000000000
 H   -2.287513778452   -2.167253909089    0.000000000000
 C   -2.039106778452    0.000000090911    0.000000000000
 O   -0.752759778452    0.000000090911    0.000000000000
 K    7.347240221548    0.000000090911    0.000000000000
