13

 C   -5.206928486051    0.000000090911    0.000000000000
 H   -6.302446486051    0.000000090911    0.000000000000
 C   -4.475461486051    1.209982090911    0.000000000000
 H   -5.013344486051    2.168601090911    0.000000000000
 C   -4.475461486051   -1.209982909089    0.000000000000
 H   -5.013343486051   -2.168601909089    0.000000000000
 C   -3.070291486051    1.215097090911    0.000000000000
 H   -2.523661486051    2.167255090911    0.000000000000
 C   -3.070291486051   -1.215096909089    0.000000000000
 H   -2.523661486051   -2.167253909089    0.000000000000
 C   -2.275254486051    0.000000090911    0.000000000000
 O   -0.988907486051    0.000000090911    0.000000000000
 K    7.911092513949    0.000000090911    0.000000000000
