13

 C   -5.236446949500    0.000000090911    0.000000000000
 H   -6.331964949500    0.000000090911    0.000000000000
 C   -4.504979949500    1.209982090911    0.000000000000
 H   -5.042862949500    2.168601090911    0.000000000000
 C   -4.504979949500   -1.209982909089    0.000000000000
 H   -5.042861949500   -2.168601909089    0.000000000000
 C   -3.099809949500    1.215097090911    0.000000000000
 H   -2.553179949500    2.167255090911    0.000000000000
 C   -3.099809949500   -1.215096909089    0.000000000000
 H   -2.553179949500   -2.167253909089    0.000000000000
 C   -2.304772949500    0.000000090911    0.000000000000
 O   -1.018425949500    0.000000090911    0.000000000000
 K    7.981574050500    0.000000090911    0.000000000000
