13

 C   -5.384039266749    0.000000090911    0.000000000000
 H   -6.479557266749    0.000000090911    0.000000000000
 C   -4.652572266749    1.209982090911    0.000000000000
 H   -5.190455266749    2.168601090911    0.000000000000
 C   -4.652572266749   -1.209982909089    0.000000000000
 H   -5.190454266749   -2.168601909089    0.000000000000
 C   -3.247402266749    1.215097090911    0.000000000000
 H   -2.700772266749    2.167255090911    0.000000000000
 C   -3.247402266749   -1.215096909089    0.000000000000
 H   -2.700772266749   -2.167253909089    0.000000000000
 C   -2.452365266749    0.000000090911    0.000000000000
 O   -1.166018266749    0.000000090911    0.000000000000
 K    8.333981733251    0.000000090911    0.000000000000
