13

 C   -5.413557730199    0.000000090911    0.000000000000
 H   -6.509075730199    0.000000090911    0.000000000000
 C   -4.682090730199    1.209982090911    0.000000000000
 H   -5.219973730199    2.168601090911    0.000000000000
 C   -4.682090730199   -1.209982909089    0.000000000000
 H   -5.219972730199   -2.168601909089    0.000000000000
 C   -3.276920730199    1.215097090911    0.000000000000
 H   -2.730290730199    2.167255090911    0.000000000000
 C   -3.276920730199   -1.215096909089    0.000000000000
 H   -2.730290730199   -2.167253909089    0.000000000000
 C   -2.481883730199    0.000000090911    0.000000000000
 O   -1.195536730199    0.000000090911    0.000000000000
 K    8.404463269801    0.000000090911    0.000000000000
