10

 C    0.427283455545    1.726192380192    0.777200574545
 H    0.820770455545    2.739321380192    0.777420574545
 C    1.039316455545    0.476084380192    0.777236574545
 H    2.105023455545    0.257357380192    0.777142574545
 N   -0.927804544455    1.457224380192    0.777188574545
 H   -1.672738544455    2.143874380192    0.777442574545
 C   -1.085610544455    0.093184380192    0.777243574545
 H   -2.063234544455   -0.382831619808    0.777117574545
 N    0.093305455545   -0.533410619808    0.777232574545
RB    0.093393378935   -0.533220617828   -0.622767409801
