10

 C    0.427279968986    1.726184845756    0.832716894841
 H    0.820766968986    2.739313845756    0.832936894841
 C    1.039312968986    0.476076845756    0.832752894841
 H    2.105019968986    0.257349845756    0.832658894841
 N   -0.927808031014    1.457216845756    0.832704894841
 H   -1.672742031014    2.143866845756    0.832958894841
 C   -1.085614031014    0.093176845756    0.832759894841
 H   -2.063238031014   -0.382839154244    0.832633894841
 N    0.093301968986   -0.533418154244    0.832748894841
RB    0.093396172617   -0.533214580694   -0.667251088387
