10

 C    0.427266022748    1.726154708011    1.054782176023
 H    0.820753022748    2.739283708011    1.055002176023
 C    1.039299022748    0.476046708011    1.054818176023
 H    2.105006022748    0.257319708011    1.054724176023
 N   -0.927821977252    1.457186708011    1.054770176023
 H   -1.672755977252    2.143836708011    1.055024176023
 C   -1.085627977252    0.093146708011    1.054825176023
 H   -2.063251977252   -0.382869291989    1.054699176023
 N    0.093288022748   -0.533448291989    1.054814176023
RB    0.093407347348   -0.533190432160   -0.845185802733
