10

 C    0.426983611440    1.725544418667    5.551604119951
 H    0.820470611440    2.738673418667    5.551824119951
 C    1.039016611440    0.475436418667    5.551640119951
 H    2.104723611440    0.256709418667    5.551546119951
 N   -0.928104388560    1.456576418667    5.551592119951
 H   -1.673038388560    2.143226418667    5.551846119951
 C   -1.085910388560    0.092536418667    5.551647119951
 H   -2.063534388560   -0.383479581333    5.551521119951
 N    0.093005611440   -0.534058581333    5.551636119951
RB    0.093633635650   -0.532701424335   -4.448363768234
