10

 C    0.427255563070    1.726132104702    1.221331136909
 H    0.820742563070    2.739261104702    1.221551136909
 C    1.039288563070    0.476024104702    1.221367136909
 H    2.104995563070    0.257297104702    1.221273136909
 N   -0.927832436930    1.457164104702    1.221319136909
 H   -1.672766436930    2.143814104702    1.221573136909
 C   -1.085638436930    0.093124104702    1.221374136909
 H   -2.063262436930   -0.382891895298    1.221248136909
 N    0.093277563070   -0.533470895298    1.221363136909
RB    0.093415728397   -0.533172320759   -0.978636838492
