10

 C    0.427252076511    1.726124570265    1.276847457204
 H    0.820739076511    2.739253570265    1.277067457204
 C    1.039285076511    0.476016570265    1.276883457204
 H    2.104992076511    0.257289570265    1.276789457204
 N   -0.927835923489    1.457156570265    1.276835457204
 H   -1.672769923489    2.143806570265    1.277089457204
 C   -1.085641923489    0.093116570265    1.276890457204
 H   -2.063265923489   -0.382899429735    1.276764457204
 N    0.093274076511   -0.533478429735    1.276879457204
RB    0.093418522079   -0.533166283625   -1.023120517078
