10

 C    0.427238130273    1.726094432520    1.498912738386
 H    0.820725130273    2.739223432520    1.499132738386
 C    1.039271130273    0.475986432520    1.498948738386
 H    2.104978130273    0.257259432520    1.498854738386
 N   -0.927849869727    1.457126432520    1.498900738386
 H   -1.672783869727    2.143776432520    1.499154738386
 C   -1.085655869727    0.093086432520    1.498955738386
 H   -2.063279869727   -0.382929567480    1.498829738386
 N    0.093260130273   -0.533508567480    1.498944738386
RB    0.093429696810   -0.533142135091   -1.201055231424
