10

 C    0.427234643714    1.726086898084    1.554429058681
 H    0.820721643714    2.739215898084    1.554649058681
 C    1.039267643714    0.475978898084    1.554465058681
 H    2.104974643714    0.257251898084    1.554371058681
 N   -0.927853356286    1.457118898084    1.554417058681
 H   -1.672787356286    2.143768898084    1.554671058681
 C   -1.085659356286    0.093078898084    1.554472058681
 H   -2.063283356286   -0.382937101916    1.554346058681
 N    0.093256643714   -0.533516101916    1.554461058681
RB    0.093432490493   -0.533136097957   -1.245538910011
