10

 C    0.427220697477    1.726056760338    1.776494339863
 H    0.820707697477    2.739185760338    1.776714339863
 C    1.039253697477    0.475948760338    1.776530339863
 H    2.104960697477    0.257221760338    1.776436339863
 N   -0.927867302523    1.457088760338    1.776482339863
 H   -1.672801302523    2.143738760338    1.776736339863
 C   -1.085673302523    0.093048760338    1.776537339863
 H   -2.063297302523   -0.382967239662    1.776411339863
 N    0.093242697477   -0.533546239662    1.776526339863
RB    0.093443665224   -0.533111949423   -1.423473624356
