10

 C    0.427217210917    1.726049225902    1.832010660158
 H    0.820704210917    2.739178225902    1.832230660158
 C    1.039250210917    0.475941225902    1.832046660158
 H    2.104957210917    0.257214225902    1.831952660158
 N   -0.927870789083    1.457081225902    1.831998660158
 H   -1.672804789083    2.143731225902    1.832252660158
 C   -1.085676789083    0.093041225902    1.832053660158
 H   -2.063300789083   -0.382974774098    1.831927660158
 N    0.093239210917   -0.533553774098    1.832042660158
RB    0.093446458907   -0.533105912289   -1.467957302943
