10

 C    0.427206751239    1.726026622593    1.998559621045
 H    0.820693751239    2.739155622593    1.998779621045
 C    1.039239751239    0.475918622593    1.998595621045
 H    2.104946751239    0.257191622593    1.998501621045
 N   -0.927881248761    1.457058622593    1.998547621045
 H   -1.672815248761    2.143708622593    1.998801621045
 C   -1.085687248761    0.093018622593    1.998602621045
 H   -2.063311248761   -0.382997377407    1.998476621045
 N    0.093228751239   -0.533576377407    1.998591621045
RB    0.093454839955   -0.533087800888   -1.601408338702
