10

 C    0.427189318442    1.725988950411    2.276141222522
 H    0.820676318442    2.739117950411    2.276361222522
 C    1.039222318442    0.475880950411    2.276177222522
 H    2.104929318442    0.257153950411    2.276083222522
 N   -0.927898681558    1.457020950411    2.276129222522
 H   -1.672832681558    2.143670950411    2.276383222522
 C   -1.085704681558    0.092980950411    2.276184222522
 H   -2.063328681558   -0.383035049589    2.276058222522
 N    0.093211318442   -0.533614049589    2.276173222522
RB    0.093468808369   -0.533057615220   -1.823826731634
