10

 C    0.427185831883    1.725981415975    2.331657542817
 H    0.820672831883    2.739110415975    2.331877542817
 C    1.039218831883    0.475873415975    2.331693542817
 H    2.104925831883    0.257146415975    2.331599542817
 N   -0.927902168117    1.457013415975    2.331645542817
 H   -1.672836168117    2.143663415975    2.331899542817
 C   -1.085708168117    0.092973415975    2.331700542817
 H   -2.063332168117   -0.383042584025    2.331574542817
 N    0.093207831883   -0.533621584025    2.331689542817
RB    0.093471602051   -0.533051578086   -1.868310410221
