10

 C    0.427168399086    1.725943743793    2.609239144294
 H    0.820655399086    2.739072743793    2.609459144294
 C    1.039201399086    0.475835743793    2.609275144294
 H    2.104908399086    0.257108743793    2.609181144294
 N   -0.927919600914    1.456975743793    2.609227144294
 H   -1.672853600914    2.143625743793    2.609481144294
 C   -1.085725600914    0.092935743793    2.609282144294
 H   -2.063349600914   -0.383080256207    2.609156144294
 N    0.093190399086   -0.533659256207    2.609271144294
RB    0.093485570465   -0.533021392418   -2.090728803153
