10

 C    0.427164912527    1.725936209357    2.664755464590
 H    0.820651912527    2.739065209357    2.664975464590
 C    1.039197912527    0.475828209357    2.664791464590
 H    2.104904912527    0.257101209357    2.664697464590
 N   -0.927923087473    1.456968209357    2.664743464590
 H   -1.672857087473    2.143618209357    2.664997464590
 C   -1.085729087473    0.092928209357    2.664798464590
 H   -2.063353087473   -0.383087790643    2.664672464590
 N    0.093186912527   -0.533666790643    2.664787464590
RB    0.093488364148   -0.533015355284   -2.135212481739
