10

 C    0.427143993171    1.725891002739    2.997853386362
 H    0.820630993171    2.739020002739    2.998073386362
 C    1.039176993171    0.475783002739    2.997889386362
 H    2.104883993171    0.257056002739    2.997795386362
 N   -0.927944006829    1.456923002739    2.997841386362
 H   -1.672878006829    2.143573002739    2.998095386362
 C   -1.085750006829    0.092883002739    2.997896386362
 H   -2.063374006829   -0.383132997261    2.997770386362
 N    0.093165993171   -0.533711997261    2.997885386362
RB    0.093505126244   -0.532979132483   -2.402114553258
