10

 C    0.427137020052    1.725875933866    3.108886026953
 H    0.820624020052    2.739004933866    3.109106026953
 C    1.039170020052    0.475767933866    3.108922026953
 H    2.104877020052    0.257040933866    3.108828026953
 N   -0.927950979948    1.456907933866    3.108874026953
 H   -1.672884979948    2.143557933866    3.109128026953
 C   -1.085756979948    0.092867933866    3.108929026953
 H   -2.063380979948   -0.383148066134    3.108803026953
 N    0.093159020052   -0.533727066134    3.108918026953
RB    0.093510713610   -0.532967058215   -2.491081910431
