10

 C    0.427126560374    1.725853330557    3.275434987839
 H    0.820613560374    2.738982330557    3.275654987839
 C    1.039159560374    0.475745330557    3.275470987839
 H    2.104866560374    0.257018330557    3.275376987839
 N   -0.927961439626    1.456885330557    3.275422987839
 H   -1.672895439626    2.143535330557    3.275676987839
 C   -1.085767439626    0.092845330557    3.275477987839
 H   -2.063391439626   -0.383170669443    3.275351987839
 N    0.093148560374   -0.533749669443    3.275466987839
RB    0.093519094658   -0.532948946814   -2.624532946190
