10

 C    0.427123073815    1.725845796121    3.330951308135
 H    0.820610073815    2.738974796121    3.331171308135
 C    1.039156073815    0.475737796121    3.330987308135
 H    2.104863073815    0.257010796121    3.330893308135
 N   -0.927964926185    1.456877796121    3.330939308135
 H   -1.672898926185    2.143527796121    3.331193308135
 C   -1.085770926185    0.092837796121    3.330994308135
 H   -2.063394926185   -0.383178203879    3.330868308135
 N    0.093145073815   -0.533757203879    3.330983308135
RB    0.093521888341   -0.532942909681   -2.669016624777
