10

 C    0.427116100696    1.725830727248    3.441983948725
 H    0.820603100696    2.738959727248    3.442203948725
 C    1.039149100696    0.475722727248    3.442019948725
 H    2.104856100696    0.256995727248    3.441925948725
 N   -0.927971899304    1.456862727248    3.441971948725
 H   -1.672905899304    2.143512727248    3.442225948725
 C   -1.085777899304    0.092822727248    3.442026948725
 H   -2.063401899304   -0.383193272752    3.441900948725
 N    0.093138100696   -0.533772272752    3.442015948725
RB    0.093527475706   -0.532930835414   -2.757983981950
