10

 C    0.427112614136    1.725823192812    3.497500269021
 H    0.820599614136    2.738952192812    3.497720269021
 C    1.039145614136    0.475715192812    3.497536269021
 H    2.104852614136    0.256988192812    3.497442269021
 N   -0.927975385864    1.456855192812    3.497488269021
 H   -1.672909385864    2.143505192812    3.497742269021
 C   -1.085781385864    0.092815192812    3.497543269021
 H   -2.063405385864   -0.383200807188    3.497417269021
 N    0.093134614136   -0.533779807188    3.497532269021
RB    0.093530269389   -0.532924798280   -2.802467660536
