10

 C    0.427074261983    1.725740314012    4.108179792270
 H    0.820561261983    2.738869314012    4.108399792270
 C    1.039107261983    0.475632314012    4.108215792270
 H    2.104814261983    0.256905314012    4.108121792270
 N   -0.928013738017    1.456772314012    4.108167792270
 H   -1.672947738017    2.143422314012    4.108421792270
 C   -1.085819738017    0.092732314012    4.108222792270
 H   -2.063443738017   -0.383283685988    4.108096792270
 N    0.093096261983   -0.533862685988    4.108211792270
RB    0.093560999899   -0.532858389810   -3.291788124987
