10

 C    0.427063802305    1.725717710703    4.274728753157
 H    0.820550802305    2.738846710703    4.274948753157
 C    1.039096802305    0.475609710703    4.274764753157
 H    2.104803802305    0.256882710703    4.274670753157
 N   -0.928024197695    1.456749710703    4.274716753157
 H   -1.672958197695    2.143399710703    4.274970753157
 C   -1.085830197695    0.092709710703    4.274771753157
 H   -2.063454197695   -0.383306289297    4.274645753157
 N    0.093085802305   -0.533885289297    4.274760753157
RB    0.093569380947   -0.532840278409   -3.425239160746
