10

 C    0.427060315746    1.725710176267    4.330245073452
 H    0.820547315746    2.738839176267    4.330465073452
 C    1.039093315746    0.475602176267    4.330281073452
 H    2.104800315746    0.256875176267    4.330187073452
 N   -0.928027684254    1.456742176267    4.330233073452
 H   -1.672961684254    2.143392176267    4.330487073452
 C   -1.085833684254    0.092702176267    4.330288073452
 H   -2.063457684254   -0.383313823733    4.330162073452
 N    0.093082315746   -0.533892823733    4.330277073452
RB    0.093572174630   -0.532834241275   -3.469722839333
