10

 C    0.427049856068    1.725687572958    4.496794034338
 H    0.820536856068    2.738816572958    4.497014034338
 C    1.039082856068    0.475579572958    4.496830034338
 H    2.104789856068    0.256852572958    4.496736034338
 N   -0.928038143932    1.456719572958    4.496782034338
 H   -1.672972143932    2.143369572958    4.497036034338
 C   -1.085844143932    0.092679572958    4.496837034338
 H   -2.063468143932   -0.383336427042    4.496711034338
 N    0.093071856068   -0.533915427042    4.496826034338
RB    0.093580555678   -0.532816129874   -3.603173875092
