10

 C    0.427042882949    1.725672504085    4.607826674929
 H    0.820529882949    2.738801504085    4.608046674929
 C    1.039075882949    0.475564504085    4.607862674929
 H    2.104782882949    0.256837504085    4.607768674929
 N   -0.928045117051    1.456704504085    4.607814674929
 H   -1.672979117051    2.143354504085    4.608068674929
 C   -1.085851117051    0.092664504085    4.607869674929
 H   -2.063475117051   -0.383351495915    4.607743674929
 N    0.093064882949   -0.533930495915    4.607858674929
RB    0.093586143044   -0.532804055607   -3.692141232265
