10

 C    0.427039396390    1.725664969649    4.663342995225
 H    0.820526396390    2.738793969649    4.663562995225
 C    1.039072396390    0.475556969649    4.663378995225
 H    2.104779396390    0.256829969649    4.663284995225
 N   -0.928048603610    1.456696969649    4.663330995225
 H   -1.672982603610    2.143346969649    4.663584995225
 C   -1.085854603610    0.092656969649    4.663385995225
 H   -2.063478603610   -0.383359030351    4.663259995225
 N    0.093061396390   -0.533938030351    4.663374995225
RB    0.093588936727   -0.532798018474   -3.736624910851
