10

 C    0.427018477034    1.725619763031    4.996440916997
 H    0.820505477034    2.738748763031    4.996660916997
 C    1.039051477034    0.475511763031    4.996476916997
 H    2.104758477034    0.256784763031    4.996382916997
 N   -0.928069522966    1.456651763031    4.996428916997
 H   -1.673003522966    2.143301763031    4.996682916997
 C   -1.085875522966    0.092611763031    4.996483916997
 H   -2.063499522966   -0.383404236969    4.996357916997
 N    0.093040477034   -0.533983236969    4.996472916997
RB    0.093605698823   -0.532761795672   -4.003526982370
