10

 C    0.427004530796    1.725589625285    5.218506198179
 H    0.820491530796    2.738718625285    5.218726198179
 C    1.039037530796    0.475481625285    5.218542198179
 H    2.104744530796    0.256754625285    5.218448198179
 N   -0.928083469204    1.456621625285    5.218494198179
 H   -1.673017469204    2.143271625285    5.218748198179
 C   -1.085889469204    0.092581625285    5.218549198179
 H   -2.063513469204   -0.383434374715    5.218423198179
 N    0.093026530796   -0.534013374715    5.218538198179
RB    0.093616873554   -0.532737647137   -4.181461696716
