10

 C    0.426997557678    1.725574556413    5.329538838770
 H    0.820484557678    2.738703556413    5.329758838770
 C    1.039030557678    0.475466556413    5.329574838770
 H    2.104737557678    0.256739556413    5.329480838770
 N   -0.928090442322    1.456606556413    5.329526838770
 H   -1.673024442322    2.143256556413    5.329780838770
 C   -1.085896442322    0.092566556413    5.329581838770
 H   -2.063520442322   -0.383449443587    5.329455838770
 N    0.093019557678   -0.534028443587    5.329570838770
RB    0.093622460920   -0.532725572870   -4.270429053888
