10

 C    0.426994071118    1.725567021976    5.385055159065
 H    0.820481071118    2.738696021976    5.385275159065
 C    1.039027071118    0.475459021976    5.385091159065
 H    2.104734071118    0.256732021976    5.384997159065
 N   -0.928093928882    1.456599021976    5.385043159065
 H   -1.673027928882    2.143249021976    5.385297159065
 C   -1.085899928882    0.092559021976    5.385098159065
 H   -2.063523928882   -0.383456978024    5.384972159065
 N    0.093016071118   -0.534035978024    5.385087159065
RB    0.093625254602   -0.532719535736   -4.314912732475
