10

 C    0.426990584559    1.725559487540    5.440571479361
 H    0.820477584559    2.738688487540    5.440791479361
 C    1.039023584559    0.475451487540    5.440607479361
 H    2.104730584559    0.256724487540    5.440513479361
 N   -0.928097415441    1.456591487540    5.440559479361
 H   -1.673031415441    2.143241487540    5.440813479361
 C   -1.085903415441    0.092551487540    5.440614479361
 H   -2.063527415441   -0.383464512460    5.440488479361
 N    0.093012584559   -0.534043512460    5.440603479361
RB    0.093628048285   -0.532713498603   -4.359396411061
