12

 H   -2.059146803590    2.308134438768    4.464004391464
 H   -1.043916803590    1.303914438768    5.651184391464
 H   -1.541726803590    0.743884438768    4.014404391464
 C   -1.177636803590    1.673084438768    4.612034391464
 S    0.223213196410    1.885954438768    3.528664391464
CS   -1.126576803590   -0.744385561232    2.483534391464
CS    1.076243196410    0.319114438768   -3.279225608536
 S   -0.080869074241   -0.683270186264   -1.278413781232
 C    1.319986273703   -0.470398890922   -2.361786952515
 H    2.201496901632   -1.105436840329   -2.213758993803
 H    1.186261567485   -0.101225404405   -3.400939770631
 H    1.684071110940    0.458813194145   -1.764160233937
