12

 H   -2.056964137571    2.326576024570    4.498509021270
 H   -1.041734137571    1.322356024570    5.685689021270
 H   -1.539544137571    0.762326024570    4.048909021270
 C   -1.175454137571    1.691526024570    4.646539021270
 S    0.225395862429    1.904396024570    3.563169021270
CS   -1.124394137571   -0.725943975430    2.518039021270
CS    1.078425862429    0.337556024570   -3.244720978730
 S   -0.095397089417   -0.806018987973   -1.508079603235
 C    1.305458258527   -0.593147692631   -2.591452774518
 H    2.186968886456   -1.228185642038   -2.443424815806
 H    1.171733552309   -0.223974206113   -3.630605592634
 H    1.669543095764    0.336064392437   -1.993826055940
