12

 H   -2.054781471552    2.345017610371    4.533013651075
 H   -1.039551471552    1.340797610371    5.720193651075
 H   -1.537361471552    0.780767610371    4.083413651075
 C   -1.173271471552    1.709967610371    4.681043651075
 S    0.227578528448    1.922837610371    3.597673651075
CS   -1.122211471552   -0.707502389629    2.552543651075
CS    1.080608528448    0.355997610371   -3.210216348925
 S   -0.109925104593   -0.928767789682   -1.737745425238
 C    1.290930243351   -0.715896494339   -2.821118596520
 H    2.172440871280   -1.350934443747   -2.673090637809
 H    1.157205537133   -0.346723007822   -3.860271414637
 H    1.655015080588    0.213315590728   -2.223491877943
