12

 H   -2.051871250193    2.369606391439    4.579019824150
 H   -1.036641250193    1.365386391439    5.766199824150
 H   -1.534451250193    0.805356391439    4.129419824150
 C   -1.170361250193    1.734556391439    4.727049824150
 S    0.230488749807    1.947426391439    3.643679824150
CS   -1.119301250193   -0.682913608561    2.598549824150
CS    1.083518749807    0.380586391439   -3.164210175850
 S   -0.129295791495   -1.092432858626   -2.043966521241
 C    1.271559556449   -0.879561563284   -3.127339692524
 H    2.153070184379   -1.514599512691   -2.979311733812
 H    1.137834850232   -0.510388076767   -4.166492510641
 H    1.635644393687    0.049650521784   -2.529712973946
