12

 H   -2.050416139513    2.381900781973    4.602022910687
 H   -1.035186139513    1.377680781973    5.789202910687
 H   -1.532996139513    0.817650781973    4.152422910687
 C   -1.168906139513    1.746850781973    4.750052910687
 S    0.231943860487    1.959720781973    3.666682910687
CS   -1.117846139513   -0.670619218027    2.621552910687
CS    1.084973860487    0.392880781973   -3.141207089313
 S   -0.138981134946   -1.174265393099   -2.197077069243
 C    1.261874212999   -0.961394097757   -3.280450240526
 H    2.143384840928   -1.596432047164   -3.132422281814
 H    1.128149506781   -0.592220611239   -4.319603058642
 H    1.625959050236   -0.032182012689   -2.682823521948
