12

 H   -2.049688584173    2.388047977240    4.613524453956
 H   -1.034458584173    1.383827977240    5.800704453956
 H   -1.532268584173    0.823797977240    4.163924453956
 C   -1.168178584173    1.752997977240    4.761554453956
 S    0.232671415827    1.965867977240    3.678184453956
CS   -1.117118584173   -0.664472022760    2.633054453956
CS    1.085701415827    0.399027977240   -3.129705546044
 S   -0.143823806671   -1.215181660335   -2.273632343244
 C    1.257031541273   -1.002310364993   -3.357005514527
 H    2.138542169203   -1.637348314400   -3.208977555815
 H    1.123306835056   -0.633136878475   -4.396158332643
 H    1.621116378511   -0.073098279925   -2.759378795949
