12

 H   -2.047505918154    2.406489563042    4.648029083762
 H   -1.032275918154    1.402269563042    5.835209083762
 H   -1.530085918154    0.842239563042    4.198429083762
 C   -1.165995918154    1.771439563042    4.796059083762
 S    0.234854081846    1.984309563042    3.712689083762
CS   -1.114935918154   -0.646030436958    2.667559083762
CS    1.087884081846    0.417469563042   -3.095200916238
 S   -0.158351821847   -1.337930462043   -2.503298165247
 C    1.242503526097   -1.125059166701   -3.586671336530
 H    2.124014154026   -1.760097116109   -3.438643377818
 H    1.108778819880   -0.755885680184   -4.625824154646
 H    1.606588363335   -0.195847081634   -2.989044617952
