12

 H   -2.046050807475    2.418783953576    4.671032170299
 H   -1.030820807475    1.414563953576    5.858212170299
 H   -1.528630807475    0.854533953576    4.221432170299
 C   -1.164540807475    1.783733953576    4.819062170299
 S    0.236309192525    1.996603953576    3.735692170299
CS   -1.113480807475   -0.633736046424    2.690562170299
CS    1.089339192525    0.429763953576   -3.072197829701
 S   -0.168037165298   -1.419762996516   -2.656408713249
 C    1.232818182646   -1.206891701174   -3.739781884532
 H    2.114328810576   -1.841929650581   -3.591753925820
 H    1.099093476429   -0.837718214656   -4.778934702648
 H    1.596903019884   -0.277679616106   -3.142155165954
