12

 H   -2.043868141456    2.437225539377    4.705536800105
 H   -1.028638141456    1.433005539377    5.892716800105
 H   -1.526448141456    0.872975539377    4.255936800105
 C   -1.162358141456    1.802175539377    4.853566800105
 S    0.238491858544    2.015045539377    3.770196800105
CS   -1.111298141456   -0.615294460623    2.725066800105
CS    1.091521858544    0.448205539377   -3.037693199895
 S   -0.182565180474   -1.542511798224   -2.886074535251
 C    1.218290167470   -1.329640502882   -3.969447706534
 H    2.099800795400   -1.964678452290   -3.821419747822
 H    1.084565461253   -0.960467016365   -5.008600524651
 H    1.582375004708   -0.400428417815   -3.371820987957
