12

 H   -2.043140586116    2.443372734644    4.717038343374
 H   -1.027910586116    1.439152734644    5.904218343374
 H   -1.525720586116    0.879122734644    4.267438343374
 C   -1.161630586116    1.808322734644    4.865068343374
 S    0.239219413884    2.021192734644    3.781698343374
CS   -1.110570586116   -0.609147265356    2.736568343374
CS    1.092249413884    0.454352734644   -3.026191656626
 S   -0.187407852199   -1.583428065461   -2.962629809252
 C    1.213447495745   -1.370556770119   -4.046002980535
 H    2.094958123674   -2.005594719526   -3.897975021823
 H    1.079722789527   -1.001383283601   -5.085155798652
 H    1.577532332982   -0.441344685051   -3.448376261957
