12

 H   -2.042413030776    2.449519929911    4.728539886642
 H   -1.027183030776    1.445299929911    5.915719886642
 H   -1.524993030776    0.885269929911    4.278939886642
 C   -1.160903030776    1.814469929911    4.876569886642
 S    0.239946969224    2.027339929911    3.793199886642
CS   -1.109843030776   -0.603000070089    2.748069886642
CS    1.092976969224    0.460499929911   -3.014690113358
 S   -0.192250523925   -1.624344332697   -3.039185083253
 C    1.208604824020   -1.411473037355   -4.122558254536
 H    2.090115451949   -2.046510986762   -3.974530295824
 H    1.074880117802   -1.042299550837   -5.161711072653
 H    1.572689661257   -0.482260952287   -3.524931535958
