12

 H   -2.040957920097    2.461814320445    4.751542973180
 H   -1.025727920097    1.457594320445    5.938722973180
 H   -1.523537920097    0.897564320445    4.301942973180
 C   -1.159447920097    1.826764320445    4.899572973180
 S    0.241402079903    2.039634320445    3.816202973180
CS   -1.108387920097   -0.590705679555    2.771072973180
CS    1.094432079903    0.472794320445   -2.991687026820
 S   -0.201935867375   -1.706176867169   -3.192295631255
 C    1.198919480569   -1.493305571827   -4.275668802538
 H    2.080430108498   -2.128343521234   -4.127640843826
 H    1.065194774351   -1.124132085310   -5.314821620654
 H    1.563004317806   -0.564093486759   -3.678042083960
