12

 H   -2.037320143398    2.492550296781    4.809050689523
 H   -1.022090143398    1.488330296781    5.996230689523
 H   -1.519900143398    0.928300296781    4.359450689523
 C   -1.155810143398    1.857500296781    4.957080689523
 S    0.245039856602    2.070370296781    3.873710689523
CS   -1.104750143398   -0.559969703219    2.828580689523
CS    1.098069856602    0.503530296781   -2.934179310477
 S   -0.226149226002   -1.910758203350   -3.575072001260
 C    1.174706121942   -1.697886908008   -4.658445172543
 H    2.056216749871   -2.332924857415   -4.510417213831
 H    1.040981415724   -1.328713421491   -5.697597990659
 H    1.538790959180   -0.768674822940   -4.060818453965
