12

 H   -2.033682366699    2.523286273116    4.866558405866
 H   -1.018452366699    1.519066273116    6.053738405866
 H   -1.516262366699    0.959036273116    4.416958405866
 C   -1.152172366699    1.888236273116    5.014588405866
 S    0.248677633301    2.101106273116    3.931218405866
CS   -1.101112366699   -0.529233726884    2.886088405866
CS    1.101707633301    0.534266273116   -2.876671594134
 S   -0.250362584629   -2.115339539531   -3.957848371264
 C    1.150492763315   -1.902468244189   -5.041221542547
 H    2.032003391245   -2.537506193596   -4.893193583835
 H    1.016768057098   -1.533294757672   -6.080374360664
 H    1.514577600553   -0.973256159121   -4.443594823969
