12

 H   -2.032227256020    2.535580663650    4.889561492403
 H   -1.016997256020    1.531360663650    6.076741492403
 H   -1.514807256020    0.971330663650    4.439961492403
 C   -1.150717256020    1.900530663650    5.037591492403
 S    0.250132743980    2.113400663650    3.954221492403
CS   -1.099657256020   -0.516939336350    2.909091492403
CS    1.103162743980    0.546560663650   -2.853668507597
 S   -0.260047928080   -2.197172074004   -4.110958919266
 C    1.140807419865   -1.984300778661   -5.194332090549
 H    2.022318047794   -2.619338728069   -5.046304131837
 H    1.007082713647   -1.615127292144   -6.233484908666
 H    1.504892257102   -1.055088693594   -4.596705371971
