12

 H   -2.030772145340    2.547875054185    4.912564578941
 H   -1.015542145340    1.543655054185    6.099744578941
 H   -1.513352145340    0.983625054185    4.462964578941
 C   -1.149262145340    1.912825054185    5.060594578941
 S    0.251587854660    2.125695054185    3.977224578941
CS   -1.098202145340   -0.504644945815    2.932094578941
CS    1.104617854660    0.558855054185   -2.830665421059
 S   -0.269733271530   -2.279004608476   -4.264069467268
 C    1.131122076414   -2.066133313134   -5.347442638551
 H    2.012632704343   -2.701171262541   -5.199414679839
 H    0.997397370196   -1.696959826616   -6.386595456667
 H    1.495206913651   -1.136921228066   -4.749815919973
