12

 H   -2.029317034661    2.560169444719    4.935567665478
 H   -1.014087034661    1.555949444719    6.122747665478
 H   -1.511897034661    0.995919444719    4.485967665478
 C   -1.147807034661    1.925119444719    5.083597665478
 S    0.253042965339    2.137989444719    4.000227665478
CS   -1.096747034661   -0.492350555281    2.955097665478
CS    1.106072965339    0.571149444719   -2.807662334522
 S   -0.279418614981   -2.360837142948   -4.417180015270
 C    1.121436732963   -2.147965847606   -5.500553186553
 H    2.002947360892   -2.783003797014   -5.352525227841
 H    0.987712026745   -1.778792361089   -6.539706004669
 H    1.485521570201   -1.218753762539   -4.902926467975
