12

 H   -2.028589479321    2.566316639986    4.947069208747
 H   -1.013359479321    1.562096639986    6.134249208747
 H   -1.511169479321    1.002066639986    4.497469208747
 C   -1.147079479321    1.931266639986    5.095099208747
 S    0.253770520679    2.144136639986    4.011729208747
CS   -1.096019479321   -0.486203360014    2.966599208747
CS    1.106800520679    0.577296639986   -2.796160791253
 S   -0.284261286706   -2.401753410185   -4.493735289271
 C    1.116594061238   -2.188882114842   -5.577108460554
 H    1.998104689167   -2.823920064250   -5.429080501842
 H    0.982869355020   -1.819708628325   -6.616261278670
 H    1.480678898475   -1.259670029775   -4.979481741976
