12

 H   -2.026406813302    2.584758225787    4.981573838553
 H   -1.011176813302    1.580538225787    6.168753838553
 H   -1.508986813302    1.020508225787    4.531973838553
 C   -1.144896813302    1.949708225787    5.129603838553
 S    0.255953186698    2.162578225787    4.046233838553
CS   -1.093836813302   -0.467761774213    3.001103838553
CS    1.108983186698    0.595738225787   -2.761656161447
 S   -0.298789301883   -2.524502211893   -4.723401111274
 C    1.102066046062   -2.311630916551   -5.806774282556
 H    1.983576673991   -2.946668865958   -5.658746323845
 H    0.968341339844   -1.942457430033   -6.845927100673
 H    1.466150883299   -1.382418831483   -5.209147563979
