12

 H   -2.025679257962    2.590905421054    4.993075381821
 H   -1.010449257962    1.586685421054    6.180255381821
 H   -1.508259257962    1.026655421054    4.543475381821
 C   -1.144169257962    1.955855421054    5.141105381821
 S    0.256680742038    2.168725421054    4.057735381821
CS   -1.093109257962   -0.461614578946    3.012605381821
CS    1.109710742038    0.601885421054   -2.750154618179
 S   -0.303631973608   -2.565418479129   -4.799956385275
 C    1.097223374336   -2.352547183787   -5.883329556557
 H    1.978734002266   -2.987585133195   -5.735301597846
 H    0.963498668119   -1.983373697270   -6.922482374674
 H    1.461308211574   -1.423335098720   -5.285702837980
