12

 H   -2.024224147282    2.603199811588    5.016078468358
 H   -1.008994147282    1.598979811588    6.203258468358
 H   -1.506804147282    1.038949811588    4.566478468358
 C   -1.142714147282    1.968149811588    5.164108468358
 S    0.258135852718    2.181019811588    4.080738468358
CS   -1.091654147282   -0.449320188412    3.035608468358
CS    1.111165852718    0.614179811588   -2.727151531642
 S   -0.313317317059   -2.647251013602   -4.953066933276
 C    1.087538030886   -2.434379718260   -6.036440104559
 H    1.969048658815   -3.069417667667   -5.888412145847
 H    0.953813324668   -2.065206231742   -7.075592922676
 H    1.451622868123   -1.505167633192   -5.438813385981
