12

 H   -2.023496591943    2.609347006855    5.027580011627
 H   -1.008266591943    1.605127006855    6.214760011627
 H   -1.506076591943    1.045097006855    4.577980011627
 C   -1.141986591943    1.974297006855    5.175610011627
 S    0.258863408057    2.187167006855    4.092240011627
CS   -1.090926591943   -0.443172993145    3.047110011627
CS    1.111893408057    0.620327006855   -2.715649988373
 S   -0.318159988784   -2.688167280838   -5.029622207277
 C    1.082695359160   -2.475295985496   -6.112995378560
 H    1.964205987090   -3.110333934903   -5.964967419848
 H    0.948970652943   -2.106122498978   -7.152148196677
 H    1.446780196398   -1.546083900428   -5.515368659982
