12

 H   -2.019131259904    2.646230178458    5.096589271239
 H   -1.003901259904    1.642010178458    6.283769271239
 H   -1.501711259904    1.081980178458    4.646989271239
 C   -1.137621259904    2.011180178458    5.244619271239
 S    0.263228740096    2.224050178458    4.161249271239
CS   -1.086561259904   -0.406289821542    3.116119271239
CS    1.116258740096    0.657210178458   -2.646640728761
 S   -0.347216019136   -2.933664884255   -5.488953851283
 C    1.053639328808   -2.720793588913   -6.572327022566
 H    1.935149956737   -3.355831538320   -6.424299063854
 H    0.919914622590   -2.351620102395   -7.611479840682
 H    1.417724166046   -1.791581503845   -5.974700303988
