12

 H   -2.011855706507    2.707702131129    5.211604703925
 H   -0.996625706507    1.703482131129    6.398784703925
 H   -1.494435706507    1.143452131129    4.762004703925
 C   -1.130345706507    2.072652131129    5.359634703925
 S    0.270504293493    2.285522131129    4.276264703925
CS   -1.079285706507   -0.344817868871    3.231134703925
CS    1.123534293493    0.718682131129   -2.531625296075
 S   -0.395642736390   -3.342827556617   -6.254506591292
 C    1.005212611555   -3.129956261275   -7.337879762575
 H    1.886723239484   -3.764994210682   -7.189851803863
 H    0.871487905337   -2.760782774757   -8.377032580691
 H    1.369297448792   -2.200744176207   -6.740253043997
