12

 H   -2.010400595827    2.719996521663    5.234607790463
 H   -0.995170595827    1.715776521663    6.421787790463
 H   -1.492980595827    1.155746521663    4.785007790463
 C   -1.128890595827    2.084946521663    5.382637790463
 S    0.271959404173    2.297816521663    4.299267790463
CS   -1.077830595827   -0.332523478337    3.254137790463
CS    1.124989404173    0.730976521663   -2.508622209537
 S   -0.405328079840   -3.424660091090   -6.407617139294
 C    0.995527268104   -3.211788795747   -7.490990310577
 H    1.877037896033   -3.846826745155   -7.342962351865
 H    0.861802561886   -2.842615309230   -8.530143128693
 H    1.359612105341   -2.282576710680   -6.893363591999
