12

 H   -2.006035263789    2.756879693265    5.303617050075
 H   -0.990805263789    1.752659693265    6.490797050075
 H   -1.488615263789    1.192629693265    4.854017050075
 C   -1.124525263789    2.121829693265    5.451647050075
 S    0.276324736211    2.334699693265    4.368277050075
CS   -1.073465263789   -0.295640306735    3.323147050075
CS    1.129354736211    0.767859693265   -2.439612949925
 S   -0.434384110193   -3.670157694507   -6.866948783300
 C    0.966471237752   -3.457286399165   -7.950321954582
 H    1.847981865681   -4.092324348572   -7.802293995871
 H    0.832746531534   -3.088112912647   -8.989474772699
 H    1.330556074989   -2.528074314097   -7.352695236005
