12

 H   -2.005307708449    2.763026888532    5.315118593343
 H   -0.990077708449    1.758806888532    6.502298593343
 H   -1.487887708449    1.198776888532    4.865518593343
 C   -1.123797708449    2.127976888532    5.463148593343
 S    0.277052291551    2.340846888532    4.379778593343
CS   -1.072737708449   -0.289493111468    3.334648593343
CS    1.130082291551    0.774006888532   -2.428111406657
 S   -0.439226781918   -3.711073961743   -6.943504057300
 C    0.961628566026   -3.498202666401   -8.026877228583
 H    1.843139193955   -4.133240615808   -7.878849269871
 H    0.827903859809   -3.129029179883   -9.066030046700
 H    1.325713403264   -2.568990581333   -7.429250510006
