12

 H   -2.004580153109    2.769174083799    5.326620136612
 H   -0.989350153109    1.764954083799    6.513800136612
 H   -1.487160153109    1.204924083799    4.877020136612
 C   -1.123070153109    2.134124083799    5.474650136612
 S    0.277779846891    2.346994083799    4.391280136612
CS   -1.072010153109   -0.283345916201    3.346150136612
CS    1.130809846891    0.780154083799   -2.416609863388
 S   -0.444069453643   -3.751990228979   -7.020059331301
 C    0.956785894301   -3.539118933637   -8.103432502584
 H    1.838296522230   -4.174156883044   -7.955404543872
 H    0.823061188083   -3.169945447119   -9.142585320701
 H    1.320870731538   -2.609906848569   -7.505805784006
