12

 H   -2.003125042430    2.781468474334    5.349623223149
 H   -0.987895042430    1.777248474334    6.536803223149
 H   -1.485705042430    1.217218474334    4.900023223149
 C   -1.121615042430    2.146418474334    5.497653223149
 S    0.279234957570    2.359288474334    4.414283223149
CS   -1.070555042430   -0.271051525666    3.369153223149
CS    1.132264957570    0.792448474334   -2.393606776851
 S   -0.453754797094   -3.833822763451   -7.173169879303
 C    0.947100550850   -3.620951468109   -8.256543050586
 H    1.828611178779   -4.255989417517   -8.108515091874
 H    0.813375844632   -3.251777981592   -9.295695868703
 H    1.311185388088   -2.691739383042   -7.658916332008
