12

 H   -1.999487265731    2.812204450669    5.407130939492
 H   -0.984257265731    1.807984450669    6.594310939492
 H   -1.482067265731    1.247954450669    4.957530939492
 C   -1.117977265731    2.177154450669    5.555160939492
 S    0.282872734269    2.390024450669    4.471790939492
CS   -1.066917265731   -0.240315549331    3.426660939492
CS    1.135902734269    0.823184450669   -2.336099060508
 S   -0.477968155721   -4.038404099632   -7.555946249308
 C    0.922887192223   -3.825532804290   -8.639319420591
 H    1.804397820153   -4.460570753698   -8.491291461879
 H    0.789162486006   -3.456359317773   -9.678472238707
 H    1.286972029461   -2.896320719223   -8.041692702013
