12

 H   -1.998032155052    2.824498841203    5.430134026030
 H   -0.982802155052    1.820278841203    6.617314026030
 H   -1.480612155052    1.260248841203    4.980534026030
 C   -1.116522155052    2.189448841203    5.578164026030
 S    0.284327844948    2.402318841203    4.494794026030
CS   -1.065462155052   -0.228021158797    3.449664026030
CS    1.137357844948    0.835478841203   -2.313095973970
 S   -0.487653499172   -4.120236634105   -7.709056797310
 C    0.913201848773   -3.907365338763   -8.792429968592
 H    1.794712476702   -4.542403288170   -8.644402009881
 H    0.779477142555   -3.538191852245   -9.831582786709
 H    1.277286686010   -2.978153253695   -8.194803250015
