12

 H   -1.996577044372    2.836793231737    5.453137112567
 H   -0.981347044372    1.832573231737    6.640317112567
 H   -1.479157044372    1.272543231737    5.003537112567
 C   -1.115067044372    2.201743231737    5.601167112567
 S    0.285782955628    2.414613231737    4.517797112567
CS   -1.064007044372   -0.215726768263    3.472667112567
CS    1.138812955628    0.847773231737   -2.290092887433
 S   -0.497338842622   -4.202069168577   -7.862167345312
 C    0.903516505322   -3.989197873235   -8.945540516594
 H    1.785027133251   -4.624235822642   -8.797512557883
 H    0.769791799104   -3.620024386718   -9.984693334711
 H    1.267601342559   -3.059985788167   -8.347913798017
