15

 C    2.049198641736    1.184096875772    2.459533943700
 H    2.266318641736    0.401046875772    3.199383943700
 H    1.621948641736    2.072486875772    2.944433943700
 H    2.998378641736    1.470876875772    1.979293943700
 C    1.104258641736    0.649296875772    1.380843943700
 O    0.274478641736    1.458266875772    0.849743943700
 O    1.212978641736   -0.576113124228    1.044723943700
LI   -0.268531358264   -0.152683124228   -0.302786056300
 C   -1.089813657152   -0.635518004143   -1.328634906896
 O   -1.073738252934    0.620515655505   -1.108556284333
 O   -0.408036560018   -1.480424988380   -0.660368345251
 C   -1.951709078717   -1.150013928531   -2.483956787141
 H   -2.210054927382   -2.207154077511   -2.334315856933
 H   -1.372431463541   -1.060542837184   -3.416776825770
 H   -2.857741042991   -0.536723222272   -2.587473212078
