15

 C    2.076884393607    1.200373430982    2.494115715125
 H    2.294004393607    0.417323430982    3.233965715125
 H    1.649634393607    2.088763430982    2.979015715125
 H    3.026064393607    1.487153430982    2.013875715125
 C    1.131944393607    0.665573430982    1.415425715125
 O    0.302164393607    1.474543430982    0.884325715125
 O    1.240664393607   -0.559836569018    1.079305715125
LI   -0.240845606393   -0.136406569018   -0.268204284875
 C   -1.120790926630   -0.653729654643   -1.367328053371
 O   -1.104715522413    0.602304005006   -1.147249430809
 O   -0.439013829496   -1.498636638879   -0.699061491726
 C   -1.982686348196   -1.168225579030   -2.522649933616
 H   -2.241032196861   -2.225365728010   -2.373009003409
 H   -1.403408733019   -1.078754487683   -3.455469972245
 H   -2.888718312469   -0.554934872772   -2.626166358554
