15

 C    2.187627401092    1.265479651818    2.632442800821
 H    2.404747401092    0.482429651818    3.372292800821
 H    1.760377401092    2.153869651818    3.117342800821
 H    3.136807401092    1.552259651818    2.152202800821
 C    1.242687401092    0.730679651818    1.553752800821
 O    0.412907401092    1.539649651818    1.022652800821
 O    1.351407401092   -0.494730348182    1.217632800821
LI   -0.130102598908   -0.071300348182   -0.129877199179
 C   -1.244700004543   -0.726576256640   -1.522100639274
 O   -1.228624600325    0.529457403009   -1.302022016711
 O   -0.562922907409   -1.571483240876   -0.853834077629
 C   -2.106595426108   -1.241072181028   -2.677422519519
 H   -2.364941274773   -2.298212330007   -2.527781589311
 H   -1.527317810931   -1.151601089680   -3.610242558148
 H   -3.012627390381   -0.627781474769   -2.780938944456
