15

 C    2.298370408576    1.330585872654    2.770769886517
 H    2.515490408576    0.547535872654    3.510619886517
 H    1.871120408576    2.218975872654    3.255669886517
 H    3.247550408576    1.617365872654    2.290529886517
 C    1.353430408576    0.795785872654    1.692079886517
 O    0.523650408576    1.604755872654    1.160979886517
 O    1.462150408576   -0.429624127346    1.355959886517
LI   -0.019359591424   -0.006194127346    0.008449886517
 C   -1.368609082455   -0.799422858637   -1.676873225176
 O   -1.352533678237    0.456610801012   -1.456794602614
 O   -0.686831985321   -1.644329842873   -1.008606663531
 C   -2.230504504020   -1.313918783025   -2.832195105421
 H   -2.488850352685   -2.371058932004   -2.682554175214
 H   -1.651226888844   -1.224447691678   -3.765015144050
 H   -3.136536468294   -0.700628076766   -2.935711530359
