15

 C    2.326056160447    1.346862427863    2.805351657941
 H    2.543176160447    0.563812427863    3.545201657941
 H    1.898806160447    2.235252427863    3.290251657941
 H    3.275236160447    1.633642427863    2.325111657941
 C    1.381116160447    0.812062427863    1.726661657941
 O    0.551336160447    1.621032427863    1.195561657941
 O    1.489836160447   -0.413347572137    1.390541657941
LI    0.008326160447    0.010082427863    0.043031657941
 C   -1.399586351933   -0.817634509136   -1.715566371652
 O   -1.383510947716    0.438399150513   -1.495487749089
 O   -0.717809254799   -1.662541493372   -1.047299810007
 C   -2.261481773499   -1.332130433524   -2.870888251897
 H   -2.519827622164   -2.389270582503   -2.721247321690
 H   -1.682204158322   -1.242659342177   -3.803708290526
 H   -3.167513737772   -0.718839727265   -2.974404676835
