15

 C    2.409113416060    1.395692093490    2.909096972214
 H    2.626233416060    0.612642093490    3.648946972214
 H    1.981863416060    2.284082093490    3.393996972214
 H    3.358293416060    1.682472093490    2.428856972214
 C    1.464173416060    0.860892093490    1.830406972214
 O    0.634393416060    1.669862093490    1.299306972214
 O    1.572893416060   -0.364517906510    1.494286972214
LI    0.091383416060    0.058912093490    0.146776972214
 C   -1.492518160368   -0.872269460634   -1.831645811079
 O   -1.476442756150    0.383764199015   -1.611567188516
 O   -0.810741063234   -1.717176444870   -1.163379249434
 C   -2.354413581933   -1.386765385022   -2.986967691324
 H   -2.612759430598   -2.443905534001   -2.837326761116
 H   -1.775135966756   -1.297294293675   -3.919787729953
 H   -3.260445546206   -0.773474678763   -3.090484116261
