15

 C    2.436799167931    1.411968648699    2.943678743638
 H    2.653919167931    0.628918648699    3.683528743638
 H    2.009549167931    2.300358648699    3.428578743638
 H    3.385979167931    1.698748648699    2.463438743638
 C    1.491859167931    0.877168648699    1.864988743638
 O    0.662079167931    1.686138648699    1.333888743638
 O    1.600579167931   -0.348241351301    1.528868743638
LI    0.119069167931    0.075188648699    0.181358743638
 C   -1.523495429846   -0.890481111133   -1.870338957554
 O   -1.507420025628    0.365552548515   -1.650260334992
 O   -0.841718332712   -1.735388095369   -1.202072395910
 C   -2.385390851411   -1.404977035521   -3.025660837799
 H   -2.643736700076   -2.462117184500   -2.876019907592
 H   -1.806113236234   -1.315505944174   -3.958480876429
 H   -3.291422815684   -0.791686329262   -3.129177262737
