15

 C    2.492170671673    1.444521759117    3.012842286486
 H    2.709290671673    0.661471759117    3.752692286486
 H    2.064920671673    2.332911759117    3.497742286486
 H    3.441350671673    1.731301759117    2.532602286486
 C    1.547230671673    0.909721759117    1.934152286486
 O    0.717450671673    1.718691759117    1.403052286486
 O    1.655950671673   -0.315688240883    1.598032286486
LI    0.174440671673    0.107741759117    0.250522286486
 C   -1.585449968802   -0.926904412132   -1.947725250506
 O   -1.569374564584    0.329129247517   -1.727646627943
 O   -0.903672871668   -1.771811396368   -1.279458688861
 C   -2.447345390367   -1.441400336519   -3.103047130751
 H   -2.705691239032   -2.498540485499   -2.953406200543
 H   -1.868067775190   -1.351929245172   -4.035867169380
 H   -3.353377354640   -0.828109630261   -3.206563555688
