15

 C    2.602913679157    1.509627979953    3.151169372182
 H    2.820033679157    0.726577979953    3.891019372182
 H    2.175663679157    2.398017979953    3.636069372182
 H    3.552093679157    1.796407979953    2.670929372182
 C    1.657973679157    0.974827979953    2.072479372182
 O    0.828193679157    1.783797979953    1.541379372182
 O    1.766693679157   -0.250582020047    1.736359372182
LI    0.285183679157    0.172847979953    0.388849372182
 C   -1.709359046714   -0.999751014129   -2.102497836408
 O   -1.693283642497    0.256282645520   -1.882419213846
 O   -1.027581949580   -1.844657998365   -1.434231274763
 C   -2.571254468280   -1.514246938517   -3.257819716653
 H   -2.829600316945   -2.571387087496   -3.108178786446
 H   -1.991976853103   -1.424775847169   -4.190639755282
 H   -3.477286432553   -0.900956232258   -3.361336141591
