15

 C    2.658285182900    1.542181090371    3.220332915030
 H    2.875405182900    0.759131090371    3.960182915030
 H    2.231035182900    2.430571090371    3.705232915030
 H    3.607465182900    1.828961090371    2.740092915030
 C    1.713345182900    1.007381090371    2.141642915030
 O    0.883565182900    1.816351090371    1.610542915030
 O    1.822065182900   -0.218028909629    1.805522915030
LI    0.340555182900    0.205401090371    0.458012915030
 C   -1.771313585671   -1.036174315127   -2.179884129359
 O   -1.755238181453    0.219859344521   -1.959805506797
 O   -1.089536488537   -1.881081299363   -1.511617567715
 C   -2.633209007236   -1.550670239515   -3.335206009604
 H   -2.891554855901   -2.607810388494   -3.185565079397
 H   -2.053931392059   -1.461199148168   -4.268026048234
 H   -3.539240971509   -0.937379533256   -3.438722434542
