15

 C    2.741342438513    1.591010755998    3.324078229303
 H    2.958462438513    0.807960755998    4.063928229303
 H    2.314092438513    2.479400755998    3.808978229303
 H    3.690522438513    1.877790755998    2.843838229303
 C    1.796402438513    1.056210755998    2.245388229303
 O    0.966622438513    1.865180755998    1.714288229303
 O    1.905122438513   -0.169199244002    1.909268229303
LI    0.423612438513    0.254230755998    0.561758229303
 C   -1.864245394105   -1.090809266625   -2.295963568786
 O   -1.848169989887    0.165224393024   -2.075884946224
 O   -1.182468296971   -1.935716250861   -1.627697007142
 C   -2.726140815670   -1.605305191013   -3.451285449031
 H   -2.984486664335   -2.662445339992   -3.301644518824
 H   -2.146863200493   -1.515834099666   -4.384105487660
 H   -3.632172779943   -0.992014484754   -3.554801873969
