15

 C    2.879771197868    1.672393532043    3.496987086423
 H    3.096891197868    0.889343532043    4.236837086423
 H    2.452521197868    2.560783532043    3.981887086423
 H    3.828951197868    1.959173532043    3.016747086423
 C    1.934831197868    1.137593532043    2.418297086423
 O    1.105051197868    1.946563532043    1.887197086423
 O    2.043551197868   -0.087816467957    2.082177086423
LI    0.562041197868    0.335613532043    0.734667086423
 C   -2.019131741496   -1.181867519121   -2.489429301164
 O   -2.003056337278    0.074166140527   -2.269350678602
 O   -1.337354644362   -2.026774503358   -1.821162739520
 C   -2.881027163061   -1.696363443509   -3.644751181409
 H   -3.139373011726   -2.753503592489   -3.495110251202
 H   -2.301749547884   -1.606892352162   -4.577571220039
 H   -3.787059127334   -1.083072737250   -3.748267606347
