15

 C    2.907456949739    1.688670087252    3.531568857847
 H    3.124576949739    0.905620087252    4.271418857847
 H    2.480206949739    2.577060087252    4.016468857847
 H    3.856636949739    1.975450087252    3.051328857847
 C    1.962516949739    1.153870087252    2.452878857847
 O    1.132736949739    1.962840087252    1.921778857847
 O    2.071236949739   -0.071539912748    2.116758857847
LI    0.589726949739    0.351890087252    0.769248857847
 C   -2.050109010974   -1.200079169621   -2.528122447640
 O   -2.034033606756    0.055954490028   -2.308043825078
 O   -1.368331913840   -2.044986153857   -1.859855885995
 C   -2.912004432539   -1.714575094008   -3.683444327885
 H   -3.170350281204   -2.771715242988   -3.533803397678
 H   -2.332726817362   -1.625104002661   -4.616264366514
 H   -3.818036396812   -1.101284387750   -3.786960752823
