15

 C    2.990514205352    1.737499752879    3.635314172120
 H    3.207634205352    0.954449752879    4.375164172120
 H    2.563264205352    2.625889752879    4.120214172120
 H    3.939694205352    2.024279752879    3.155074172120
 C    2.045574205352    1.202699752879    2.556624172120
 O    1.215794205352    2.011669752879    2.025524172120
 O    2.154294205352   -0.022710247121    2.220504172120
LI    0.672784205352    0.400719752879    0.872994172120
 C   -2.143040819408   -1.254714121118   -2.644201887067
 O   -2.126965415190    0.001319538530   -2.424123264504
 O   -1.461263722274   -2.099621105355   -1.975935325422
 C   -3.004936240973   -1.769210045506   -3.799523767312
 H   -3.263282089638   -2.826350194486   -3.649882837105
 H   -2.425658625796   -1.679738954159   -4.732343805941
 H   -3.910968205246   -1.155919339247   -3.903040192250
