15

 C    3.101257212836    1.802605973715    3.773641257816
 H    3.318377212836    1.019555973715    4.513491257816
 H    2.674007212836    2.690995973715    4.258541257816
 H    4.050437212836    2.089385973715    3.293401257816
 C    2.156317212836    1.267805973715    2.694951257816
 O    1.326537212836    2.076775973715    2.163851257816
 O    2.265037212836    0.042395973715    2.358831257816
LI    0.783527212836    0.465825973715    1.011321257816
 C   -2.266949897320   -1.327560723115   -2.798974472969
 O   -2.250874493103   -0.071527063467   -2.578895850407
 O   -1.585172800186   -2.172467707352   -2.130707911325
 C   -3.128845318886   -1.842056647503   -3.954296353214
 H   -3.387191167551   -2.899196796483   -3.804655423007
 H   -2.549567703709   -1.752585556156   -4.887116391844
 H   -4.034877283159   -1.228765941244   -4.057812778152
