15

 C    3.322743227805    1.932818415387    4.050295429209
 H    3.539863227805    1.149768415387    4.790145429209
 H    2.895493227805    2.821208415387    4.535195429209
 H    4.271923227805    2.219598415387    3.570055429209
 C    2.377803227805    1.398018415387    2.971605429209
 O    1.548023227805    2.206988415387    2.440505429209
 O    2.486523227805    0.172608415387    2.635485429209
LI    1.005013227805    0.596038415387    1.287975429209
 C   -2.514768053145   -1.473253927110   -3.108519644774
 O   -2.498692648928   -0.217220267461   -2.888441022212
 O   -1.832990956011   -2.318160911346   -2.440253083130
 C   -3.376663474711   -1.987749851497   -4.263841525020
 H   -3.635009323376   -3.044890000477   -4.114200594812
 H   -2.797385859534   -1.898278760150   -5.196661563649
 H   -4.282695438984   -1.374459145238   -4.367357949957
