15

 C    3.488857739031    2.030477746641    4.257786057753
 H    3.705977739031    1.247427746641    4.997636057753
 H    3.061607739031    2.918867746641    4.742686057753
 H    4.438037739031    2.317257746641    3.777546057753
 C    2.543917739031    1.495677746641    3.179096057753
 O    1.714137739031    2.304647746641    2.647996057753
 O    2.652637739031    0.270267746641    2.842976057753
LI    1.171127739031    0.693697746641    1.495466057753
 C   -2.700631670014   -1.582523830105   -3.340678523628
 O   -2.684556265796   -0.326490170457   -3.120599901066
 O   -2.018854572880   -2.427430814341   -2.672411961983
 C   -3.562527091579   -2.097019754493   -4.496000403873
 H   -3.820872940244   -3.154159903472   -4.346359473666
 H   -2.983249476402   -2.007548663146   -5.428820442502
 H   -4.468559055852   -1.483729048234   -4.599516828811
