15

 C    3.516543490902    2.046754301850    4.292367829177
 H    3.733663490902    1.263704301850    5.032217829177
 H    3.089293490902    2.935144301850    4.777267829177
 H    4.465723490902    2.333534301850    3.812127829177
 C    2.571603490902    1.511954301850    3.213677829177
 O    1.741823490902    2.320924301850    2.682577829177
 O    2.680323490902    0.286544301850    2.877557829177
LI    1.198813490902    0.709974301850    1.530047829177
 C   -2.731608939492   -1.600735480604   -3.379371670104
 O   -2.715533535275   -0.344701820956   -3.159293047541
 O   -2.049831842358   -2.445642464841   -2.711105108459
 C   -3.593504361058   -2.115231404992   -4.534693550349
 H   -3.851850209722   -3.172371553972   -4.385052620142
 H   -3.014226745881   -2.025760313645   -5.467513588978
 H   -4.499536325331   -1.501940698733   -4.638209975287
