15

 C    3.654972250257    2.128137077895    4.465276686298
 H    3.872092250257    1.345087077895    5.205126686298
 H    3.227722250257    3.016527077895    4.950176686298
 H    4.604152250257    2.414917077895    3.985036686298
 C    2.710032250257    1.593337077895    3.386586686298
 O    1.880252250257    2.402307077895    2.855486686298
 O    2.818752250257    0.367927077895    3.050466686298
LI    1.337242250257    0.791357077895    1.702956686298
 C   -2.886495286883   -1.691793733101   -3.572837402482
 O   -2.870419882665   -0.435760073452   -3.352758779919
 O   -2.204718189749   -2.536700717337   -2.904570840837
 C   -3.748390708448   -2.206289657489   -4.728159282727
 H   -4.006736557113   -3.263429806468   -4.578518352520
 H   -3.169113093271   -2.116818566141   -5.660979321356
 H   -4.654422672721   -1.592998951230   -4.831675707665
