15

 C    3.682658002129    2.144413633104    4.499858457722
 H    3.899778002129    1.361363633104    5.239708457722
 H    3.255408002129    3.032803633104    4.984758457722
 H    4.631838002129    2.431193633104    4.019618457722
 C    2.737718002129    1.609613633104    3.421168457722
 O    1.907938002129    2.418583633104    2.890068457722
 O    2.846438002129    0.384203633104    3.085048457722
LI    1.364928002129    0.807633633104    1.737538457722
 C   -2.917472556361   -1.710005383600   -3.611530548958
 O   -2.901397152143   -0.453971723951   -3.391451926395
 O   -2.235695459227   -2.554912367836   -2.943263987313
 C   -3.779367977926   -2.224501307988   -4.766852429203
 H   -4.037713826591   -3.281641456967   -4.617211498995
 H   -3.200090362749   -2.135030216641   -5.699672467832
 H   -4.685399942199   -1.611210601729   -4.870368854140
