15

 C    3.793401009613    2.209519853940    4.638185543418
 H    4.010521009613    1.426469853940    5.378035543418
 H    3.366151009613    3.097909853940    5.123085543418
 H    4.742581009613    2.496299853940    4.157945543418
 C    2.848461009613    1.674719853940    3.559495543418
 O    2.018681009613    2.483689853940    3.028395543418
 O    2.957181009613    0.449309853940    3.223375543418
LI    1.475671009613    0.872739853940    1.875865543418
 C   -3.041381634273   -1.782851985597   -3.766303134860
 O   -3.025306230056   -0.526818325948   -3.546224512298
 O   -2.359604537139   -2.627758969833   -3.098036573215
 C   -3.903277055839   -2.297347909985   -4.921625015105
 H   -4.161622904504   -3.354488058964   -4.771984084898
 H   -3.323999440662   -2.207876818638   -5.854445053734
 H   -4.809309020112   -1.684057203726   -5.025141440043
