15

 C    3.904144017097    2.274626074776    4.776512629115
 H    4.121264017097    1.491576074776    5.516362629115
 H    3.476894017097    3.163016074776    5.261412629115
 H    4.853324017097    2.561406074776    4.296272629115
 C    2.959204017097    1.739826074776    3.697822629115
 O    2.129424017097    2.548796074776    3.166722629115
 O    3.067924017097    0.514416074776    3.361702629115
LI    1.586414017097    0.937846074776    2.014192629115
 C   -3.165290712186   -1.855698587594   -3.921075720763
 O   -3.149215307968   -0.599664927946   -3.700997098200
 O   -2.483513615052   -2.700605571830   -3.252809159118
 C   -4.027186133751   -2.370194511982   -5.076397601008
 H   -4.285531982416   -3.427334660961   -4.926756670800
 H   -3.447908518574   -2.280723420635   -6.009217639637
 H   -4.933218098024   -1.756903805723   -5.179914025945
