15

 C    4.014887024581    2.339732295612    4.914839714811
 H    4.232007024581    1.556682295612    5.654689714811
 H    3.587637024581    3.228122295612    5.399739714811
 H    4.964067024581    2.626512295612    4.434599714811
 C    3.069947024581    1.804932295612    3.836149714811
 O    2.240167024581    2.613902295612    3.305049714811
 O    3.178667024581    0.579522295612    3.500029714811
LI    1.697157024581    1.002952295612    2.152519714811
 C   -3.289199790098   -1.928545189591   -4.075848306665
 O   -3.273124385881   -0.672511529943   -3.855769684103
 O   -2.607422692964   -2.773452173827   -3.407581745020
 C   -4.151095211664   -2.443041113979   -5.231170186910
 H   -4.409441060329   -3.500181262958   -5.081529256703
 H   -3.571817596487   -2.353570022632   -6.163990225539
 H   -5.057127175937   -1.829750407720   -5.334686611848
