15

 C    4.291744543292    2.502497847703    5.260657429052
 H    4.508864543292    1.719447847703    6.000507429052
 H    3.864494543292    3.390887847703    5.745557429052
 H    5.240924543292    2.789277847703    4.780417429052
 C    3.346804543292    1.967697847703    4.181967429052
 O    2.517024543292    2.776667847703    3.650867429052
 O    3.455524543292    0.742287847703    3.845847429052
LI    1.974014543292    1.165717847703    2.498337429052
 C   -3.598972484879   -2.110661694584   -4.462779771421
 O   -3.582897080662   -0.854628034935   -4.242701148859
 O   -2.917195387745   -2.955568678820   -3.794513209777
 C   -4.460867906445   -2.625157618972   -5.618101651666
 H   -4.719213755110   -3.682297767951   -5.468460721459
 H   -3.881590291268   -2.535686527625   -6.550921690296
 H   -5.366899870718   -2.011866912713   -5.721618076604
