15

 C    4.319430295163    2.518774402912    5.295239200476
 H    4.536550295163    1.735724402912    6.035089200476
 H    3.892180295163    3.407164402912    5.780139200476
 H    5.268610295163    2.805554402912    4.814999200476
 C    3.374490295163    1.983974402912    4.216549200476
 O    2.544710295163    2.792944402912    3.685449200476
 O    3.483210295163    0.758564402912    3.880429200476
LI    2.001700295163    1.181994402912    2.532919200476
 C   -3.629949754357   -2.128873345083   -4.501472917897
 O   -3.613874350140   -0.872839685434   -4.281394295335
 O   -2.948172657224   -2.973780329319   -3.833206356252
 C   -4.491845175923   -2.643369269471   -5.656794798142
 H   -4.750191024588   -3.700509418450   -5.507153867935
 H   -3.912567560746   -2.553898178124   -6.589614836771
 H   -5.397877140196   -2.030078563212   -5.760311223080
