15

 C    4.374801798905    2.551327513330    5.364402743324
 H    4.591921798905    1.768277513330    6.104252743324
 H    3.947551798905    3.439717513330    5.849302743324
 H    5.323981798905    2.838107513330    4.884162743324
 C    3.429861798905    2.016527513330    4.285712743324
 O    2.600081798905    2.825497513330    3.754612743324
 O    3.538581798905    0.791117513330    3.949592743324
LI    2.057071798905    1.214547513330    2.602082743324
 C   -3.691904293314   -2.165296646082   -4.578859210848
 O   -3.675828889096   -0.909262986433   -4.358780588286
 O   -3.010127196180   -3.010203630318   -3.910592649204
 C   -4.553799714879   -2.679792570469   -5.734181091093
 H   -4.812145563544   -3.736932719449   -5.584540160886
 H   -3.974522099702   -2.590321479122   -6.667001129723
 H   -5.459831679152   -2.066501864211   -5.837697516031
