25

 C    4.228802888703    1.446383960444    0.000000000000
 H    3.531392888703    2.288713960444    0.000000000000
 H    4.867522888703    1.501453960444    0.892970000000
 H    4.867522888703    1.501453960444   -0.892970000000
 C    3.465422888703    0.133693960444    0.000000000000
 O    2.217372888703    0.040223960444    0.000000000000
 N    4.226982888703   -0.986466039556    0.000000000000
 H    5.231362888703   -0.874486039556    0.000000000000
 C    3.645132888703   -2.320896039556    0.000000000000
 H    3.005222888703   -2.452636039556    0.884150000000
 H    3.005222888703   -2.452636039556   -0.884150000000
 H    4.453262888703   -3.061666039556    0.000000000000
RB   -0.563067111297   -0.010216039556    0.000000000000
 O   -1.562902603711   -0.028354068874    0.000000000000
 C   -2.810947735136   -0.121819150735    0.000000000000
 C   -3.574329471684   -1.434507733265    0.000000000000
 H   -2.876921184823   -2.276836069675    0.000000000000
 H   -4.213047426700   -1.489578271375   -0.892973203782
 H   -4.213047426700   -1.489578271375    0.892973203782
 N   -3.572513460164    0.998346453055    0.000000000000
 H   -4.576889323330    0.886357679115    0.000000000000
 C   -2.990657947071    2.332768177804    0.000000000000
 H   -2.350746100530    2.464508364919   -0.884153705108
 H   -2.350746100530    2.464508364919    0.884153705108
 H   -3.798787827610    3.073534003879    0.000000000000
