25

 C    4.260419889076    1.446957524879    0.000000000000
 H    3.563009889076    2.289287524879    0.000000000000
 H    4.899139889076    1.502027524879    0.892970000000
 H    4.899139889076    1.502027524879   -0.892970000000
 C    3.497039889076    0.134267524879    0.000000000000
 O    2.248989889076    0.040797524879    0.000000000000
 N    4.258599889076   -0.985892475121    0.000000000000
 H    5.262979889076   -0.873912475121    0.000000000000
 C    3.676749889076   -2.320322475121    0.000000000000
 H    3.036839889076   -2.452062475121    0.884150000000
 H    3.036839889076   -2.452062475121   -0.884150000000
 H    4.484879889076   -3.061092475121    0.000000000000
RB   -0.531450110924   -0.009642475121    0.000000000000
 O   -1.631269152580   -0.029594307371    0.000000000000
 C   -2.879314284005   -0.123059389232    0.000000000000
 C   -3.642696020553   -1.435747971762    0.000000000000
 H   -2.945287733692   -2.278076308171    0.000000000000
 H   -4.281413975568   -1.490818509871   -0.892973203782
 H   -4.281413975568   -1.490818509871    0.892973203782
 N   -3.640880009032    0.997106214558    0.000000000000
 H   -4.645255872199    0.885117440618    0.000000000000
 C   -3.059024495940    2.331527939308    0.000000000000
 H   -2.419112649399    2.463268126422   -0.884153705108
 H   -2.419112649399    2.463268126422    0.884153705108
 H   -3.867154376479    3.072293765383    0.000000000000
