25

 C    4.386887890568    1.449251782621    0.000000000000
 H    3.689477890568    2.291581782621    0.000000000000
 H    5.025607890568    1.504321782621    0.892970000000
 H    5.025607890568    1.504321782621   -0.892970000000
 C    3.623507890568    0.136561782621    0.000000000000
 O    2.375457890568    0.043091782621    0.000000000000
 N    4.385067890568   -0.983598217379    0.000000000000
 H    5.389447890568   -0.871618217379    0.000000000000
 C    3.803217890568   -2.318028217379    0.000000000000
 H    3.163307890568   -2.449768217379    0.884150000000
 H    3.163307890568   -2.449768217379   -0.884150000000
 H    4.611347890568   -3.058798217379    0.000000000000
RB   -0.404982109432   -0.007348217379    0.000000000000
 O   -1.904735348054   -0.034555261356    0.000000000000
 C   -3.152780479478   -0.128020343217    0.000000000000
 C   -3.916162216026   -1.440708925747    0.000000000000
 H   -3.218753929166   -2.283037262157    0.000000000000
 H   -4.554880171042   -1.495779463857   -0.892973203782
 H   -4.554880171042   -1.495779463857    0.892973203782
 N   -3.914346204506    0.992145260573    0.000000000000
 H   -4.918722067672    0.880156486633    0.000000000000
 C   -3.332490691414    2.326566985322    0.000000000000
 H   -2.692578844873    2.458307172437   -0.884153705108
 H   -2.692578844873    2.458307172437    0.884153705108
 H   -4.140620571953    3.067332811397    0.000000000000
