25

 C    4.481738891688    1.450972475927    0.000000000000
 H    3.784328891688    2.293302475927    0.000000000000
 H    5.120458891688    1.506042475927    0.892970000000
 H    5.120458891688    1.506042475927   -0.892970000000
 C    3.718358891688    0.138282475927    0.000000000000
 O    2.470308891688    0.044812475927    0.000000000000
 N    4.479918891688   -0.981877524073    0.000000000000
 H    5.484298891688   -0.869897524073    0.000000000000
 C    3.898068891688   -2.316307524073    0.000000000000
 H    3.258158891688   -2.448047524073    0.884150000000
 H    3.258158891688   -2.448047524073   -0.884150000000
 H    4.706198891688   -3.057077524073    0.000000000000
RB   -0.310131108312   -0.005627524073    0.000000000000
 O   -2.109834994659   -0.038275976846    0.000000000000
 C   -3.357880126084   -0.131741058706    0.000000000000
 C   -4.121261862632   -1.444429641237    0.000000000000
 H   -3.423853575771   -2.286757977646    0.000000000000
 H   -4.759979817648   -1.499500179346   -0.892973203782
 H   -4.759979817648   -1.499500179346    0.892973203782
 N   -4.119445851111    0.988424545084    0.000000000000
 H   -5.123821714278    0.876435771144    0.000000000000
 C   -3.537590338019    2.322846269833    0.000000000000
 H   -2.897678491478    2.454586456948   -0.884153705108
 H   -2.897678491478    2.454586456948    0.884153705108
 H   -4.345720218558    3.063612095908    0.000000000000
