25

 C    4.513355892061    1.451546040363    0.000000000000
 H    3.815945892061    2.293876040363    0.000000000000
 H    5.152075892061    1.506616040363    0.892970000000
 H    5.152075892061    1.506616040363   -0.892970000000
 C    3.749975892061    0.138856040363    0.000000000000
 O    2.501925892061    0.045386040363    0.000000000000
 N    4.511535892061   -0.981303959637    0.000000000000
 H    5.515915892061   -0.869323959637    0.000000000000
 C    3.929685892061   -2.315733959637    0.000000000000
 H    3.289775892061   -2.447473959637    0.884150000000
 H    3.289775892061   -2.447473959637   -0.884150000000
 H    4.737815892061   -3.056503959637    0.000000000000
RB   -0.278514107939   -0.005053959637    0.000000000000
 O   -2.178201543528   -0.039516215342    0.000000000000
 C   -3.426246674952   -0.132981297203    0.000000000000
 C   -4.189628411500   -1.445669879733    0.000000000000
 H   -3.492220124640   -2.287998216142    0.000000000000
 H   -4.828346366516   -1.500740417843   -0.892973203782
 H   -4.828346366516   -1.500740417843    0.892973203782
 N   -4.187812399980    0.987184306587    0.000000000000
 H   -5.192188263146    0.875195532647    0.000000000000
 C   -3.605956886888    2.321606031337    0.000000000000
 H   -2.966045040347    2.453346218451   -0.884153705108
 H   -2.966045040347    2.453346218451    0.884153705108
 H   -4.414086767427    3.062371857412    0.000000000000
