25

 C    4.544972892434    1.452119604798    0.000000000000
 H    3.847562892434    2.294449604798    0.000000000000
 H    5.183692892434    1.507189604798    0.892970000000
 H    5.183692892434    1.507189604798   -0.892970000000
 C    3.781592892434    0.139429604798    0.000000000000
 O    2.533542892434    0.045959604798    0.000000000000
 N    4.543152892434   -0.980730395202    0.000000000000
 H    5.547532892434   -0.868750395202    0.000000000000
 C    3.961302892434   -2.315160395202    0.000000000000
 H    3.321392892434   -2.446900395202    0.884150000000
 H    3.321392892434   -2.446900395202   -0.884150000000
 H    4.769432892434   -3.055930395202    0.000000000000
RB   -0.246897107566   -0.004480395202    0.000000000000
 O   -2.246568092396   -0.040756453838    0.000000000000
 C   -3.494613223821   -0.134221535699    0.000000000000
 C   -4.257994960369   -1.446910118229    0.000000000000
 H   -3.560586673508   -2.289238454639    0.000000000000
 H   -4.896712915384   -1.501980656339   -0.892973203782
 H   -4.896712915384   -1.501980656339    0.892973203782
 N   -4.256178948848    0.985944068091    0.000000000000
 H   -5.260554812015    0.873955294151    0.000000000000
 C   -3.674323435756    2.320365792840    0.000000000000
 H   -3.034411589215    2.452105979955   -0.884153705108
 H   -3.034411589215    2.452105979955    0.884153705108
 H   -4.482453316295    3.061131618915    0.000000000000
