25

 C    4.797908895418    1.456708120281    0.000000000000
 H    4.100498895418    2.299038120281    0.000000000000
 H    5.436628895418    1.511778120281    0.892970000000
 H    5.436628895418    1.511778120281   -0.892970000000
 C    4.034528895418    0.144018120281    0.000000000000
 O    2.786478895418    0.050548120281    0.000000000000
 N    4.796088895418   -0.976141879719    0.000000000000
 H    5.800468895418   -0.864161879719    0.000000000000
 C    4.214238895418   -2.310571879719    0.000000000000
 H    3.574328895418   -2.442311879719    0.884150000000
 H    3.574328895418   -2.442311879719   -0.884150000000
 H    5.022368895418   -3.051341879719    0.000000000000
RB    0.006038895418    0.000108120281    0.000000000000
 O   -2.793500483344   -0.050678361810    0.000000000000
 C   -4.041545614768   -0.144143443670    0.000000000000
 C   -4.804927351316   -1.456832026201    0.000000000000
 H   -4.107519064456   -2.299160362610    0.000000000000
 H   -5.443645306332   -1.511902564310   -0.892973203782
 H   -5.443645306332   -1.511902564310    0.892973203782
 N   -4.803111339796    0.976022160120    0.000000000000
 H   -5.807487202962    0.864033386180    0.000000000000
 C   -4.221255826704    2.310443884869    0.000000000000
 H   -3.581343980163    2.442184071984   -0.884153705108
 H   -3.581343980163    2.442184071984    0.884153705108
 H   -5.029385707243    3.051209710944    0.000000000000
