25

 C    4.987610897656    1.460149506894    0.000000000000
 H    4.290200897656    2.302479506894    0.000000000000
 H    5.626330897656    1.515219506894    0.892970000000
 H    5.626330897656    1.515219506894   -0.892970000000
 C    4.224230897656    0.147459506894    0.000000000000
 O    2.976180897656    0.053989506894    0.000000000000
 N    4.985790897656   -0.972700493106    0.000000000000
 H    5.990170897656   -0.860720493106    0.000000000000
 C    4.403940897656   -2.307130493106    0.000000000000
 H    3.764030897656   -2.438870493106    0.884150000000
 H    3.764030897656   -2.438870493106   -0.884150000000
 H    5.212070897656   -3.047900493106    0.000000000000
RB    0.195740897656    0.003549506894    0.000000000000
 O   -3.203699776555   -0.058119792788    0.000000000000
 C   -4.451744907979   -0.151584874649    0.000000000000
 C   -5.215126644527   -1.464273457179    0.000000000000
 H   -4.517718357667   -2.306601793588    0.000000000000
 H   -5.853844599543   -1.519343995289   -0.892973203782
 H   -5.853844599543   -1.519343995289    0.892973203782
 N   -5.213310633007    0.968580729141    0.000000000000
 H   -6.217686496173    0.856591955201    0.000000000000
 C   -4.631455119914    2.303002453891    0.000000000000
 H   -3.991543273373    2.434742641005   -0.884153705108
 H   -3.991543273373    2.434742641005    0.884153705108
 H   -5.439585000453    3.043768279966    0.000000000000
