25

 C    5.050844898402    1.461296635765    0.000000000000
 H    4.353434898402    2.303626635765    0.000000000000
 H    5.689564898402    1.516366635765    0.892970000000
 H    5.689564898402    1.516366635765   -0.892970000000
 C    4.287464898402    0.148606635765    0.000000000000
 O    3.039414898402    0.055136635765    0.000000000000
 N    5.049024898402   -0.971553364235    0.000000000000
 H    6.053404898402   -0.859573364235    0.000000000000
 C    4.467174898402   -2.305983364235    0.000000000000
 H    3.827264898402   -2.437723364235    0.884150000000
 H    3.827264898402   -2.437723364235   -0.884150000000
 H    5.275304898402   -3.046753364235    0.000000000000
RB    0.258974898402    0.004696635765    0.000000000000
 O   -3.340432874292   -0.060600269781    0.000000000000
 C   -4.588478005716   -0.154065351642    0.000000000000
 C   -5.351859742264   -1.466753934172    0.000000000000
 H   -4.654451455403   -2.309082270581    0.000000000000
 H   -5.990577697280   -1.521824472281   -0.892973203782
 H   -5.990577697280   -1.521824472281    0.892973203782
 N   -5.350043730744    0.966100252148    0.000000000000
 H   -6.354419593910    0.854111478208    0.000000000000
 C   -4.768188217651    2.300521976898    0.000000000000
 H   -4.128276371110    2.432262164012   -0.884153705108
 H   -4.128276371110    2.432262164012    0.884153705108
 H   -5.576318098190    3.041287802973    0.000000000000
