25

 C    5.240546900640    1.464738022377    0.000000000000
 H    4.543136900640    2.307068022377    0.000000000000
 H    5.879266900640    1.519808022377    0.892970000000
 H    5.879266900640    1.519808022377   -0.892970000000
 C    4.477166900640    0.152048022377    0.000000000000
 O    3.229116900640    0.058578022377    0.000000000000
 N    5.238726900640   -0.968111977623    0.000000000000
 H    6.243106900640   -0.856131977623    0.000000000000
 C    4.656876900640   -2.302541977623    0.000000000000
 H    4.016966900640   -2.434281977623    0.884150000000
 H    4.016966900640   -2.434281977623   -0.884150000000
 H    5.465006900640   -3.043311977623    0.000000000000
RB    0.448676900640    0.008138022377    0.000000000000
 O   -3.750632167502   -0.068041700759    0.000000000000
 C   -4.998677298927   -0.161506782620    0.000000000000
 C   -5.762059035475   -1.474195365150    0.000000000000
 H   -5.064650748614   -2.316523701559    0.000000000000
 H   -6.400776990491   -1.529265903260   -0.892973203782
 H   -6.400776990491   -1.529265903260    0.892973203782
 N   -5.760243023954    0.958658821170    0.000000000000
 H   -6.764618887121    0.846670047230    0.000000000000
 C   -5.178387510862    2.293080545920    0.000000000000
 H   -4.538475664321    2.424820733034   -0.884153705108
 H   -4.538475664321    2.424820733034    0.884153705108
 H   -5.986517391401    3.033846371994    0.000000000000
