25

 C    5.303780901386    1.465885151248    0.000000000000
 H    4.606370901386    2.308215151248    0.000000000000
 H    5.942500901386    1.520955151248    0.892970000000
 H    5.942500901386    1.520955151248   -0.892970000000
 C    4.540400901386    0.153195151248    0.000000000000
 O    3.292350901386    0.059725151248    0.000000000000
 N    5.301960901386   -0.966964848752    0.000000000000
 H    6.306340901386   -0.854984848752    0.000000000000
 C    4.720110901386   -2.301394848752    0.000000000000
 H    4.080200901386   -2.433134848752    0.884150000000
 H    4.080200901386   -2.433134848752   -0.884150000000
 H    5.528240901386   -3.042164848752    0.000000000000
RB    0.511910901386    0.009285151248    0.000000000000
 O   -3.887365265239   -0.070522177752    0.000000000000
 C   -5.135410396664   -0.163987259613    0.000000000000
 C   -5.898792133212   -1.476675842143    0.000000000000
 H   -5.201383846351   -2.319004178552    0.000000000000
 H   -6.537510088228   -1.531746380253   -0.892973203782
 H   -6.537510088228   -1.531746380253    0.892973203782
 N   -5.896976121691    0.956178344177    0.000000000000
 H   -6.901351984858    0.844189570237    0.000000000000
 C   -5.315120608599    2.290600068927    0.000000000000
 H   -4.675208762058    2.422340256041   -0.884153705108
 H   -4.675208762058    2.422340256041    0.884153705108
 H   -6.123250489138    3.031365895002    0.000000000000
