25

 C    5.335397901759    1.466458715683    0.000000000000
 H    4.637987901759    2.308788715683    0.000000000000
 H    5.974117901759    1.521528715683    0.892970000000
 H    5.974117901759    1.521528715683   -0.892970000000
 C    4.572017901759    0.153768715683    0.000000000000
 O    3.323967901759    0.060298715683    0.000000000000
 N    5.333577901759   -0.966391284317    0.000000000000
 H    6.337957901759   -0.854411284317    0.000000000000
 C    4.751727901759   -2.300821284317    0.000000000000
 H    4.111817901759   -2.432561284317    0.884150000000
 H    4.111817901759   -2.432561284317   -0.884150000000
 H    5.559857901759   -3.041591284317    0.000000000000
RB    0.543527901759    0.009858715683    0.000000000000
 O   -3.955731814108   -0.071762416248    0.000000000000
 C   -5.203776945532   -0.165227498109    0.000000000000
 C   -5.967158682080   -1.477916080639    0.000000000000
 H   -5.269750395220   -2.320244417049    0.000000000000
 H   -6.605876637096   -1.532986618749   -0.892973203782
 H   -6.605876637096   -1.532986618749    0.892973203782
 N   -5.965342670560    0.954938105681    0.000000000000
 H   -6.969718533726    0.842949331741    0.000000000000
 C   -5.383487157468    2.289359830431    0.000000000000
 H   -4.743575310927    2.421100017545   -0.884153705108
 H   -4.743575310927    2.421100017545    0.884153705108
 H   -6.191617038007    3.030125656505    0.000000000000
