25

 C    5.367014902132    1.467032280119    0.000000000000
 H    4.669604902132    2.309362280119    0.000000000000
 H    6.005734902132    1.522102280119    0.892970000000
 H    6.005734902132    1.522102280119   -0.892970000000
 C    4.603634902132    0.154342280119    0.000000000000
 O    3.355584902132    0.060872280119    0.000000000000
 N    5.365194902132   -0.965817719881    0.000000000000
 H    6.369574902132   -0.853837719881    0.000000000000
 C    4.783344902132   -2.300247719881    0.000000000000
 H    4.143434902132   -2.431987719881    0.884150000000
 H    4.143434902132   -2.431987719881   -0.884150000000
 H    5.591474902132   -3.041017719881    0.000000000000
RB    0.575144902132    0.010432280119    0.000000000000
 O   -4.024098362976   -0.073002654745    0.000000000000
 C   -5.272143494401   -0.166467736606    0.000000000000
 C   -6.035525230949   -1.479156319136    0.000000000000
 H   -5.338116944088   -2.321484655545    0.000000000000
 H   -6.674243185964   -1.534226857245   -0.892973203782
 H   -6.674243185964   -1.534226857245    0.892973203782
 N   -6.033709219428    0.953697867184    0.000000000000
 H   -7.038085082595    0.841709093244    0.000000000000
 C   -5.451853706336    2.288119591934    0.000000000000
 H   -4.811941859795    2.419859779048   -0.884153705108
 H   -4.811941859795    2.419859779048    0.884153705108
 H   -6.259983586875    3.028885418009    0.000000000000
