25

 C    5.461865903251    1.468752973425    0.000000000000
 H    4.764455903251    2.311082973425    0.000000000000
 H    6.100585903251    1.523822973425    0.892970000000
 H    6.100585903251    1.523822973425   -0.892970000000
 C    4.698485903251    0.156062973425    0.000000000000
 O    3.450435903251    0.062592973425    0.000000000000
 N    5.460045903251   -0.964097026575    0.000000000000
 H    6.464425903251   -0.852117026575    0.000000000000
 C    4.878195903251   -2.298527026575    0.000000000000
 H    4.238285903251   -2.430267026575    0.884150000000
 H    4.238285903251   -2.430267026575   -0.884150000000
 H    5.686325903251   -3.039297026575    0.000000000000
RB    0.669995903251    0.012152973425    0.000000000000
 O   -4.229198009582   -0.076723370234    0.000000000000
 C   -5.477243141006   -0.170188452095    0.000000000000
 C   -6.240624877554   -1.482877034625    0.000000000000
 H   -5.543216590693   -2.325205371034    0.000000000000
 H   -6.879342832570   -1.537947572735   -0.892973203782
 H   -6.879342832570   -1.537947572735    0.892973203782
 N   -6.238808866034    0.949977151695    0.000000000000
 H   -7.243184729200    0.837988377755    0.000000000000
 C   -5.656953352941    2.284398876445    0.000000000000
 H   -5.017041506400    2.416139063559   -0.884153705108
 H   -5.017041506400    2.416139063559    0.884153705108
 H   -6.465083233480    3.025164702520    0.000000000000
