25

 C    5.525099903997    1.469900102296    0.000000000000
 H    4.827689903997    2.312230102296    0.000000000000
 H    6.163819903997    1.524970102296    0.892970000000
 H    6.163819903997    1.524970102296   -0.892970000000
 C    4.761719903997    0.157210102296    0.000000000000
 O    3.513669903997    0.063740102296    0.000000000000
 N    5.523279903997   -0.962949897704    0.000000000000
 H    6.527659903997   -0.850969897704    0.000000000000
 C    4.941429903997   -2.297379897704    0.000000000000
 H    4.301519903997   -2.429119897704    0.884150000000
 H    4.301519903997   -2.429119897704   -0.884150000000
 H    5.749559903997   -3.038149897704    0.000000000000
RB    0.733229903997    0.013300102296    0.000000000000
 O   -4.365931107318   -0.079203847227    0.000000000000
 C   -5.613976238743   -0.172668929087    0.000000000000
 C   -6.377357975291   -1.485357511618    0.000000000000
 H   -5.679949688430   -2.327685848027    0.000000000000
 H   -7.016075930307   -1.540428049727   -0.892973203782
 H   -7.016075930307   -1.540428049727    0.892973203782
 N   -6.375541963771    0.947496674702    0.000000000000
 H   -7.379917826937    0.835507900762    0.000000000000
 C   -5.793686450678    2.281918399452    0.000000000000
 H   -5.153774604137    2.413658586566   -0.884153705108
 H   -5.153774604137    2.413658586566    0.884153705108
 H   -6.601816331217    3.022684225527    0.000000000000
