25

 C    5.588333904743    1.471047231167    0.000000000000
 H    4.890923904743    2.313377231167    0.000000000000
 H    6.227053904743    1.526117231167    0.892970000000
 H    6.227053904743    1.526117231167   -0.892970000000
 C    4.824953904743    0.158357231167    0.000000000000
 O    3.576903904743    0.064887231167    0.000000000000
 N    5.586513904743   -0.961802768833    0.000000000000
 H    6.590893904743   -0.849822768833    0.000000000000
 C    5.004663904743   -2.296232768833    0.000000000000
 H    4.364753904743   -2.427972768833    0.884150000000
 H    4.364753904743   -2.427972768833   -0.884150000000
 H    5.812793904743   -3.037002768833    0.000000000000
RB    0.796463904743    0.014447231167    0.000000000000
 O   -4.502664205055   -0.081684324220    0.000000000000
 C   -5.750709336480   -0.175149406080    0.000000000000
 C   -6.514091073028   -1.487837988610    0.000000000000
 H   -5.816682786167   -2.330166325020    0.000000000000
 H   -7.152809028044   -1.542908526720   -0.892973203782
 H   -7.152809028044   -1.542908526720    0.892973203782
 N   -6.512275061508    0.945016197710    0.000000000000
 H   -7.516650924674    0.833027423770    0.000000000000
 C   -5.930419548415    2.279437922459    0.000000000000
 H   -5.290507701874    2.411178109574   -0.884153705108
 H   -5.290507701874    2.411178109574    0.884153705108
 H   -6.738549428954    3.020203748534    0.000000000000
