25

 C    5.778035906981    1.474488617779    0.000000000000
 H    5.080625906981    2.316818617779    0.000000000000
 H    6.416755906981    1.529558617779    0.892970000000
 H    6.416755906981    1.529558617779   -0.892970000000
 C    5.014655906981    0.161798617779    0.000000000000
 O    3.766605906981    0.068328617779    0.000000000000
 N    5.776215906981   -0.958361382221    0.000000000000
 H    6.780595906981   -0.846381382221    0.000000000000
 C    5.194365906981   -2.292791382221    0.000000000000
 H    4.554455906981   -2.424531382221    0.884150000000
 H    4.554455906981   -2.424531382221   -0.884150000000
 H    6.002495906981   -3.033561382221    0.000000000000
RB    0.986165906981    0.017888617779    0.000000000000
 O   -4.912863498266   -0.089125755198    0.000000000000
 C   -6.160908629691   -0.182590837059    0.000000000000
 C   -6.924290366239   -1.495279419589    0.000000000000
 H   -6.226882079378   -2.337607755998    0.000000000000
 H   -7.563008321254   -1.550349957699   -0.892973203782
 H   -7.563008321254   -1.550349957699    0.892973203782
 N   -6.922474354718    0.937574766731    0.000000000000
 H   -7.926850217885    0.825585992791    0.000000000000
 C   -6.340618841626    2.271996491481    0.000000000000
 H   -5.700706995085    2.403736678595   -0.884153705108
 H   -5.700706995085    2.403736678595    0.884153705108
 H   -7.148748722165    3.012762317556    0.000000000000
