25

 C    5.809652907354    1.475062182215    0.000000000000
 H    5.112242907354    2.317392182215    0.000000000000
 H    6.448372907354    1.530132182215    0.892970000000
 H    6.448372907354    1.530132182215   -0.892970000000
 C    5.046272907354    0.162372182215    0.000000000000
 O    3.798222907354    0.068902182215    0.000000000000
 N    5.807832907354   -0.957787817785    0.000000000000
 H    6.812212907354   -0.845807817785    0.000000000000
 C    5.225982907354   -2.292217817785    0.000000000000
 H    4.586072907354   -2.423957817785    0.884150000000
 H    4.586072907354   -2.423957817785   -0.884150000000
 H    6.034112907354   -3.032987817785    0.000000000000
RB    1.017782907354    0.018462182215    0.000000000000
 O   -4.981230047135   -0.090365993694    0.000000000000
 C   -6.229275178559   -0.183831075555    0.000000000000
 C   -6.992656915107   -1.496519658085    0.000000000000
 H   -6.295248628247   -2.338847994495    0.000000000000
 H   -7.631374870123   -1.551590196195   -0.892973203782
 H   -7.631374870123   -1.551590196195    0.892973203782
 N   -6.990840903587    0.936334528235    0.000000000000
 H   -7.995216766753    0.824345754295    0.000000000000
 C   -6.408985390495    2.270756252985    0.000000000000
 H   -5.769073543954    2.402496440099   -0.884153705108
 H   -5.769073543954    2.402496440099    0.884153705108
 H   -7.217115271034    3.011522079059    0.000000000000
