25

 C    5.841269907728    1.475635746650    0.000000000000
 H    5.143859907728    2.317965746650    0.000000000000
 H    6.479989907728    1.530705746650    0.892970000000
 H    6.479989907728    1.530705746650   -0.892970000000
 C    5.077889907728    0.162945746650    0.000000000000
 O    3.829839907728    0.069475746650    0.000000000000
 N    5.839449907728   -0.957214253350    0.000000000000
 H    6.843829907728   -0.845234253350    0.000000000000
 C    5.257599907728   -2.291644253350    0.000000000000
 H    4.617689907728   -2.423384253350    0.884150000000
 H    4.617689907728   -2.423384253350   -0.884150000000
 H    6.065729907728   -3.032414253350    0.000000000000
RB    1.049399907728    0.019035746650    0.000000000000
 O   -5.049596596003   -0.091606232191    0.000000000000
 C   -6.297641727428   -0.185071314051    0.000000000000
 C   -7.061023463976   -1.497759896582    0.000000000000
 H   -6.363615177115   -2.340088232991    0.000000000000
 H   -7.699741418991   -1.552830434691   -0.892973203782
 H   -7.699741418991   -1.552830434691    0.892973203782
 N   -7.059207452455    0.935094289738    0.000000000000
 H   -8.063583315622    0.823105515798    0.000000000000
 C   -6.477351939363    2.269516014488    0.000000000000
 H   -5.837440092822    2.401256201602   -0.884153705108
 H   -5.837440092822    2.401256201602    0.884153705108
 H   -7.285481819902    3.010281840563    0.000000000000
