25

 C    5.872886908101    1.476209311086    0.000000000000
 H    5.175476908101    2.318539311086    0.000000000000
 H    6.511606908101    1.531279311086    0.892970000000
 H    6.511606908101    1.531279311086   -0.892970000000
 C    5.109506908101    0.163519311086    0.000000000000
 O    3.861456908101    0.070049311086    0.000000000000
 N    5.871066908101   -0.956640688914    0.000000000000
 H    6.875446908101   -0.844660688914    0.000000000000
 C    5.289216908101   -2.291070688914    0.000000000000
 H    4.649306908101   -2.422810688914    0.884150000000
 H    4.649306908101   -2.422810688914   -0.884150000000
 H    6.097346908101   -3.031840688914    0.000000000000
RB    1.081016908101    0.019609311086    0.000000000000
 O   -5.117963144872   -0.092846470687    0.000000000000
 C   -6.366008276296   -0.186311552548    0.000000000000
 C   -7.129390012844   -1.499000135078    0.000000000000
 H   -6.431981725984   -2.341328471487    0.000000000000
 H   -7.768107967860   -1.554070673188   -0.892973203782
 H   -7.768107967860   -1.554070673188    0.892973203782
 N   -7.127574001324    0.933854051242    0.000000000000
 H   -8.131949864490    0.821865277302    0.000000000000
 C   -6.545718488231    2.268275775992    0.000000000000
 H   -5.905806641690    2.400015963106   -0.884153705108
 H   -5.905806641690    2.400015963106    0.884153705108
 H   -7.353848368770    3.009041602066    0.000000000000
