25

 C    5.967737909220    1.477930004392    0.000000000000
 H    5.270327909220    2.320260004392    0.000000000000
 H    6.606457909220    1.533000004392    0.892970000000
 H    6.606457909220    1.533000004392   -0.892970000000
 C    5.204357909220    0.165240004392    0.000000000000
 O    3.956307909220    0.071770004392    0.000000000000
 N    5.965917909220   -0.954919995608    0.000000000000
 H    6.970297909220   -0.842939995608    0.000000000000
 C    5.384067909220   -2.289349995608    0.000000000000
 H    4.744157909220   -2.421089995608    0.884150000000
 H    4.744157909220   -2.421089995608   -0.884150000000
 H    6.192197909220   -3.030119995608    0.000000000000
RB    1.175867909220    0.021330004392    0.000000000000
 O   -5.323062791477   -0.096567186176    0.000000000000
 C   -6.571107922902   -0.190032268037    0.000000000000
 C   -7.334489659450   -1.502720850567    0.000000000000
 H   -6.637081372589   -2.345049186977    0.000000000000
 H   -7.973207614465   -1.557791388677   -0.892973203782
 H   -7.973207614465   -1.557791388677    0.892973203782
 N   -7.332673647929    0.930133335753    0.000000000000
 H   -8.337049511096    0.818144561813    0.000000000000
 C   -6.750818134837    2.264555060503    0.000000000000
 H   -6.110906288296    2.396295247617   -0.884153705108
 H   -6.110906288296    2.396295247617    0.884153705108
 H   -7.558948015376    3.005320886577    0.000000000000
