25

 C    5.999354909593    1.478503568827    0.000000000000
 H    5.301944909593    2.320833568827    0.000000000000
 H    6.638074909593    1.533573568827    0.892970000000
 H    6.638074909593    1.533573568827   -0.892970000000
 C    5.235974909593    0.165813568827    0.000000000000
 O    3.987924909593    0.072343568827    0.000000000000
 N    5.997534909593   -0.954346431173    0.000000000000
 H    7.001914909593   -0.842366431173    0.000000000000
 C    5.415684909593   -2.288776431173    0.000000000000
 H    4.775774909593   -2.420516431173    0.884150000000
 H    4.775774909593   -2.420516431173   -0.884150000000
 H    6.223814909593   -3.029546431173    0.000000000000
RB    1.207484909593    0.021903568827    0.000000000000
 O   -5.391429340345   -0.097807424673    0.000000000000
 C   -6.639474471770   -0.191272506533    0.000000000000
 C   -7.402856208318   -1.503961089064    0.000000000000
 H   -6.705447921457   -2.346289425473    0.000000000000
 H   -8.041574163334   -1.559031627173   -0.892973203782
 H   -8.041574163334   -1.559031627173    0.892973203782
 N   -7.401040196798    0.928893097256    0.000000000000
 H   -8.405416059964    0.816904323316    0.000000000000
 C   -6.819184683705    2.263314822006    0.000000000000
 H   -6.179272837164    2.395055009120   -0.884153705108
 H   -6.179272837164    2.395055009120    0.884153705108
 H   -7.627314564244    3.004080648081    0.000000000000
