25

 C    6.125822911085    1.480797826569    0.000000000000
 H    5.428412911085    2.323127826569    0.000000000000
 H    6.764542911085    1.535867826569    0.892970000000
 H    6.764542911085    1.535867826569   -0.892970000000
 C    5.362442911085    0.168107826569    0.000000000000
 O    4.114392911085    0.074637826569    0.000000000000
 N    6.124002911085   -0.952052173431    0.000000000000
 H    7.128382911085   -0.840072173431    0.000000000000
 C    5.542152911085   -2.286482173431    0.000000000000
 H    4.902242911085   -2.418222173431    0.884150000000
 H    4.902242911085   -2.418222173431   -0.884150000000
 H    6.350282911085   -3.027252173431    0.000000000000
RB    1.333952911085    0.024197826569    0.000000000000
 O   -5.664895535819   -0.102768378658    0.000000000000
 C   -6.912940667244   -0.196233460519    0.000000000000
 C   -7.676322403792   -1.508922043049    0.000000000000
 H   -6.978914116931   -2.351250379459    0.000000000000
 H   -8.315040358808   -1.563992581159   -0.892973203782
 H   -8.315040358808   -1.563992581159    0.892973203782
 N   -7.674506392271    0.923932143271    0.000000000000
 H   -8.678882255438    0.811943369331    0.000000000000
 C   -7.092650879179    2.258353868021    0.000000000000
 H   -6.452739032638    2.390094055135   -0.884153705108
 H   -6.452739032638    2.390094055135    0.884153705108
 H   -7.900780759718    2.999119694095    0.000000000000
