25

 C    6.220673912204    1.482518519875    0.000000000000
 H    5.523263912204    2.324848519875    0.000000000000
 H    6.859393912204    1.537588519875    0.892970000000
 H    6.859393912204    1.537588519875   -0.892970000000
 C    5.457293912204    0.169828519875    0.000000000000
 O    4.209243912204    0.076358519875    0.000000000000
 N    6.218853912204   -0.950331480125    0.000000000000
 H    7.223233912204   -0.838351480125    0.000000000000
 C    5.637003912204   -2.284761480125    0.000000000000
 H    4.997093912204   -2.416501480125    0.884150000000
 H    4.997093912204   -2.416501480125   -0.884150000000
 H    6.445133912204   -3.025531480125    0.000000000000
RB    1.428803912204    0.025918519875    0.000000000000
 O   -5.869995182425   -0.106489094147    0.000000000000
 C   -7.118040313849   -0.199954176008    0.000000000000
 C   -7.881422050397   -1.512642758538    0.000000000000
 H   -7.184013763537   -2.354971094948    0.000000000000
 H   -8.520140005413   -1.567713296648   -0.892973203782
 H   -8.520140005413   -1.567713296648    0.892973203782
 N   -7.879606038877    0.920211427782    0.000000000000
 H   -8.883981902043    0.808222653842    0.000000000000
 C   -7.297750525785    2.254633152531    0.000000000000
 H   -6.657838679244    2.386373339646   -0.884153705108
 H   -6.657838679244    2.386373339646    0.884153705108
 H   -8.105880406324    2.995398978606    0.000000000000
