25

 C    6.347141913696    1.484812777617    0.000000000000
 H    5.649731913696    2.327142777617    0.000000000000
 H    6.985861913696    1.539882777617    0.892970000000
 H    6.985861913696    1.539882777617   -0.892970000000
 C    5.583761913696    0.172122777617    0.000000000000
 O    4.335711913696    0.078652777617    0.000000000000
 N    6.345321913696   -0.948037222383    0.000000000000
 H    7.349701913696   -0.836057222383    0.000000000000
 C    5.763471913696   -2.282467222383    0.000000000000
 H    5.123561913696   -2.414207222383    0.884150000000
 H    5.123561913696   -2.414207222383   -0.884150000000
 H    6.571601913696   -3.023237222383    0.000000000000
RB    1.555271913696    0.028212777617    0.000000000000
 O   -6.143461377899   -0.111450048133    0.000000000000
 C   -7.391506509323   -0.204915129994    0.000000000000
 C   -8.154888245871   -1.517603712524    0.000000000000
 H   -7.457479959010   -2.359932048933    0.000000000000
 H   -8.793606200887   -1.572674250634   -0.892973203782
 H   -8.793606200887   -1.572674250634    0.892973203782
 N   -8.153072234351    0.915250473796    0.000000000000
 H   -9.157448097517    0.803261699856    0.000000000000
 C   -7.571216721258    2.249672198546    0.000000000000
 H   -6.931304874717    2.381412385660   -0.884153705108
 H   -6.931304874717    2.381412385660    0.884153705108
 H   -8.379346601797    2.990438024620    0.000000000000
