25

 C    6.441992914815    1.486533470923    0.000000000000
 H    5.744582914815    2.328863470923    0.000000000000
 H    7.080712914815    1.541603470923    0.892970000000
 H    7.080712914815    1.541603470923   -0.892970000000
 C    5.678612914815    0.173843470923    0.000000000000
 O    4.430562914815    0.080373470923    0.000000000000
 N    6.440172914815   -0.946316529077    0.000000000000
 H    7.444552914815   -0.834336529077    0.000000000000
 C    5.858322914815   -2.280746529077    0.000000000000
 H    5.218412914815   -2.412486529077    0.884150000000
 H    5.218412914815   -2.412486529077   -0.884150000000
 H    6.666452914815   -3.021516529077    0.000000000000
RB    1.650122914815    0.029933470923    0.000000000000
 O   -6.348561024504   -0.115170763622    0.000000000000
 C   -7.596606155929   -0.208635845483    0.000000000000
 C   -8.359987892476   -1.521324428013    0.000000000000
 H   -7.662579605616   -2.363652764423    0.000000000000
 H   -8.998705847492   -1.576394966123   -0.892973203782
 H   -8.998705847492   -1.576394966123    0.892973203782
 N   -8.358171880956    0.911529758307    0.000000000000
 H   -9.362547744123    0.799540984367    0.000000000000
 C   -7.776316367864    2.245951483057    0.000000000000
 H   -7.136404521323    2.377691670171   -0.884153705108
 H   -7.136404521323    2.377691670171    0.884153705108
 H   -8.584446248403    2.986717309131    0.000000000000
