25

 C    6.473609915188    1.487107035358    0.000000000000
 H    5.776199915188    2.329437035358    0.000000000000
 H    7.112329915188    1.542177035358    0.892970000000
 H    7.112329915188    1.542177035358   -0.892970000000
 C    5.710229915188    0.174417035358    0.000000000000
 O    4.462179915188    0.080947035358    0.000000000000
 N    6.471789915188   -0.945742964642    0.000000000000
 H    7.476169915188   -0.833762964642    0.000000000000
 C    5.889939915188   -2.280172964642    0.000000000000
 H    5.250029915188   -2.411912964642    0.884150000000
 H    5.250029915188   -2.411912964642   -0.884150000000
 H    6.698069915188   -3.020942964642    0.000000000000
RB    1.681739915188    0.030507035358    0.000000000000
 O   -6.416927573372   -0.116411002119    0.000000000000
 C   -7.664972704797   -0.209876083979    0.000000000000
 C   -8.428354441345   -1.522564666510    0.000000000000
 H   -7.730946154484   -2.364893002919    0.000000000000
 H   -9.067072396361   -1.577635204619   -0.892973203782
 H   -9.067072396361   -1.577635204619    0.892973203782
 N   -8.426538429825    0.910289519810    0.000000000000
 H   -9.430914292991    0.798300745870    0.000000000000
 C   -7.844682916732    2.244711244560    0.000000000000
 H   -7.204771070191    2.376451431674   -0.884153705108
 H   -7.204771070191    2.376451431674    0.884153705108
 H   -8.652812797271    2.985477070635    0.000000000000
