25

 C    6.536843915934    1.488254164229    0.000000000000
 H    5.839433915934    2.330584164229    0.000000000000
 H    7.175563915934    1.543324164229    0.892970000000
 H    7.175563915934    1.543324164229   -0.892970000000
 C    5.773463915934    0.175564164229    0.000000000000
 O    4.525413915934    0.082094164229    0.000000000000
 N    6.535023915934   -0.944595835771    0.000000000000
 H    7.539403915934   -0.832615835771    0.000000000000
 C    5.953173915934   -2.279025835771    0.000000000000
 H    5.313263915934   -2.410765835771    0.884150000000
 H    5.313263915934   -2.410765835771   -0.884150000000
 H    6.761303915934   -3.019795835771    0.000000000000
RB    1.744973915934    0.031654164229    0.000000000000
 O   -6.553660671109   -0.118891479111    0.000000000000
 C   -7.801705802534   -0.212356560972    0.000000000000
 C   -8.565087539082   -1.525045143502    0.000000000000
 H   -7.867679252221   -2.367373479912    0.000000000000
 H   -9.203805494098   -1.580115681612   -0.892973203782
 H   -9.203805494098   -1.580115681612    0.892973203782
 N   -8.563271527561    0.907809042818    0.000000000000
 H   -9.567647390728    0.795820268878    0.000000000000
 C   -7.981416014469    2.242230767567    0.000000000000
 H   -7.341504167928    2.373970954682   -0.884153705108
 H   -7.341504167928    2.373970954682    0.884153705108
 H   -8.789545895008    2.982996593642    0.000000000000
