25

 C    6.631694917053    1.489974857536    0.000000000000
 H    5.934284917053    2.332304857536    0.000000000000
 H    7.270414917053    1.545044857536    0.892970000000
 H    7.270414917053    1.545044857536   -0.892970000000
 C    5.868314917053    0.177284857536    0.000000000000
 O    4.620264917053    0.083814857536    0.000000000000
 N    6.629874917053   -0.942875142464    0.000000000000
 H    7.634254917053   -0.830895142464    0.000000000000
 C    6.048024917053   -2.277305142464    0.000000000000
 H    5.408114917053   -2.409045142464    0.884150000000
 H    5.408114917053   -2.409045142464   -0.884150000000
 H    6.856154917053   -3.018075142464    0.000000000000
RB    1.839824917053    0.033374857536    0.000000000000
 O   -6.758760317715   -0.122612194601    0.000000000000
 C   -8.006805449139   -0.216077276461    0.000000000000
 C   -8.770187185687   -1.528765858992    0.000000000000
 H   -8.072778898827   -2.371094195401    0.000000000000
 H   -9.408905140703   -1.583836397101   -0.892973203782
 H   -9.408905140703   -1.583836397101    0.892973203782
 N   -8.768371174167    0.904088327328    0.000000000000
 H   -9.772747037333    0.792099553388    0.000000000000
 C   -8.186515661075    2.238510052078    0.000000000000
 H   -7.546603814534    2.370250239193   -0.884153705108
 H   -7.546603814534    2.370250239193    0.884153705108
 H   -8.994645541614    2.979275878153    0.000000000000
