25

 C    6.694928917799    1.491121986406    0.000000000000
 H    5.997518917799    2.333451986406    0.000000000000
 H    7.333648917799    1.546191986406    0.892970000000
 H    7.333648917799    1.546191986406   -0.892970000000
 C    5.931548917799    0.178431986406    0.000000000000
 O    4.683498917799    0.084961986406    0.000000000000
 N    6.693108917799   -0.941728013594    0.000000000000
 H    7.697488917799   -0.829748013594    0.000000000000
 C    6.111258917799   -2.276158013594    0.000000000000
 H    5.471348917799   -2.407898013594    0.884150000000
 H    5.471348917799   -2.407898013594   -0.884150000000
 H    6.919388917799   -3.016928013594    0.000000000000
RB    1.903058917799    0.034521986406    0.000000000000
 O   -6.895493415452   -0.125092671593    0.000000000000
 C   -8.143538546876   -0.218557753454    0.000000000000
 C   -8.906920283424   -1.531246335984    0.000000000000
 H   -8.209511996564   -2.373574672394    0.000000000000
 H   -9.545638238440   -1.586316874094   -0.892973203782
 H   -9.545638238440   -1.586316874094    0.892973203782
 N   -8.905104271904    0.901607850336    0.000000000000
 H   -9.909480135070    0.789619076396    0.000000000000
 C   -8.323248758811    2.236029575085    0.000000000000
 H   -7.683336912270    2.367769762200   -0.884153705108
 H   -7.683336912270    2.367769762200    0.884153705108
 H   -9.131378639350    2.976795401160    0.000000000000
