25

 C    6.821396919291    1.493416244148    0.000000000000
 H    6.123986919291    2.335746244148    0.000000000000
 H    7.460116919291    1.548486244148    0.892970000000
 H    7.460116919291    1.548486244148   -0.892970000000
 C    6.058016919291    0.180726244148    0.000000000000
 O    4.809966919291    0.087256244148    0.000000000000
 N    6.819576919291   -0.939433755852    0.000000000000
 H    7.823956919291   -0.827453755852    0.000000000000
 C    6.237726919291   -2.273863755852    0.000000000000
 H    5.597816919291   -2.405603755852    0.884150000000
 H    5.597816919291   -2.405603755852   -0.884150000000
 H    7.045856919291   -3.014633755852    0.000000000000
RB    2.029526919291    0.036816244148    0.000000000000
 O   -7.168959610925   -0.130053625579    0.000000000000
 C   -8.417004742350   -0.223518707440    0.000000000000
 C   -9.180386478898   -1.536207289970    0.000000000000
 H   -8.482978192037   -2.378535626379    0.000000000000
 H   -9.819104433914   -1.591277828080   -0.892973203782
 H   -9.819104433914   -1.591277828080    0.892973203782
 N   -9.178570467378    0.896646896350    0.000000000000
 H  -10.182946330544    0.784658122410    0.000000000000
 C   -8.596714954285    2.231068621100    0.000000000000
 H   -7.956803107744    2.362808808214   -0.884153705108
 H   -7.956803107744    2.362808808214    0.884153705108
 H   -9.404844834824    2.971834447174    0.000000000000
