20

 H    3.351195268428    1.391549984482   -0.900200000000
 H    2.111785268428    2.329319984482    0.000000000000
 H    3.351195268428    1.391549984482    0.900200000000
 C    2.723395268428    1.415359984482    0.000000000000
 S    1.571335268428   -0.000000015518    0.000000000000
 C    2.723395268428   -1.415360015518    0.000000000000
 H    3.351195268428   -1.391550015518    0.900200000000
 H    2.111785268428   -2.329320015518    0.000000000000
 H    3.351195268428   -1.391550015518   -0.900200000000
 K   -0.253194731572   -0.000000015518    2.543950000000
 K   -0.253194731572   -0.000000015518   -2.543950000000
 S   -1.253194731572   -0.000000015518    0.000000000000
 C   -2.405251975669   -1.415359725246    0.000000000000
 H   -3.033061624911   -1.391550791381    0.900202864130
 H   -1.793643024758   -2.329317366259    0.000000000000
 H   -3.033061624911   -1.391550791381   -0.900202864130
 C   -2.405251728643    1.415359895282    0.000000000000
 H   -3.033061382040    1.391551070991   -0.900202864130
 H   -1.793642618215    2.329317429549    0.000000000000
 H   -3.033061382040    1.391551070991    0.900202864130
