20

 H    3.381903005625    1.391549984482   -0.900200000000
 H    2.142493005625    2.329319984482    0.000000000000
 H    3.381903005625    1.391549984482    0.900200000000
 C    2.754103005625    1.415359984482    0.000000000000
 S    1.602043005625   -0.000000015518    0.000000000000
 C    2.754103005625   -1.415360015518    0.000000000000
 H    3.381903005625   -1.391550015518    0.900200000000
 H    2.142493005625   -2.329320015518    0.000000000000
 H    3.381903005625   -1.391550015518   -0.900200000000
 K   -0.222486994375   -0.000000015518    2.543950000000
 K   -0.222486994375   -0.000000015518   -2.543950000000
 S   -1.322486994375   -0.000000015518    0.000000000000
 C   -2.474544238472   -1.415359725246    0.000000000000
 H   -3.102353887714   -1.391550791381    0.900202864130
 H   -1.862935287561   -2.329317366259    0.000000000000
 H   -3.102353887714   -1.391550791381   -0.900202864130
 C   -2.474543991445    1.415359895282    0.000000000000
 H   -3.102353644843    1.391551070991   -0.900202864130
 H   -1.862934881018    2.329317429549    0.000000000000
 H   -3.102353644843    1.391551070991    0.900202864130
