20

 H    3.412610742822    1.391549984482   -0.900200000000
 H    2.173200742822    2.329319984482    0.000000000000
 H    3.412610742822    1.391549984482    0.900200000000
 C    2.784810742822    1.415359984482    0.000000000000
 S    1.632750742822   -0.000000015518    0.000000000000
 C    2.784810742822   -1.415360015518    0.000000000000
 H    3.412610742822   -1.391550015518    0.900200000000
 H    2.173200742822   -2.329320015518    0.000000000000
 H    3.412610742822   -1.391550015518   -0.900200000000
 K   -0.191779257178   -0.000000015518    2.543950000000
 K   -0.191779257178   -0.000000015518   -2.543950000000
 S   -1.391779257178   -0.000000015518    0.000000000000
 C   -2.543836501275   -1.415359725246    0.000000000000
 H   -3.171646150517   -1.391550791381    0.900202864130
 H   -1.932227550364   -2.329317366259    0.000000000000
 H   -3.171646150517   -1.391550791381   -0.900202864130
 C   -2.543836254248    1.415359895282    0.000000000000
 H   -3.171645907645    1.391551070991   -0.900202864130
 H   -1.932227143821    2.329317429549    0.000000000000
 H   -3.171645907645    1.391551070991    0.900202864130
