20

 H    3.443318480019    1.391549984482   -0.900200000000
 H    2.203908480019    2.329319984482    0.000000000000
 H    3.443318480019    1.391549984482    0.900200000000
 C    2.815518480019    1.415359984482    0.000000000000
 S    1.663458480019   -0.000000015518    0.000000000000
 C    2.815518480019   -1.415360015518    0.000000000000
 H    3.443318480019   -1.391550015518    0.900200000000
 H    2.203908480019   -2.329320015518    0.000000000000
 H    3.443318480019   -1.391550015518   -0.900200000000
 K   -0.161071519981   -0.000000015518    2.543950000000
 K   -0.161071519981   -0.000000015518   -2.543950000000
 S   -1.461071519981   -0.000000015518    0.000000000000
 C   -2.613128764078   -1.415359725246    0.000000000000
 H   -3.240938413320   -1.391550791381    0.900202864130
 H   -2.001519813167   -2.329317366259    0.000000000000
 H   -3.240938413320   -1.391550791381   -0.900202864130
 C   -2.613128517051    1.415359895282    0.000000000000
 H   -3.240938170448    1.391551070991   -0.900202864130
 H   -2.001519406624    2.329317429549    0.000000000000
 H   -3.240938170448    1.391551070991    0.900202864130
