20

 H    3.474026217217    1.391549984482   -0.900200000000
 H    2.234616217217    2.329319984482    0.000000000000
 H    3.474026217217    1.391549984482    0.900200000000
 C    2.846226217217    1.415359984482    0.000000000000
 S    1.694166217217   -0.000000015518    0.000000000000
 C    2.846226217217   -1.415360015518    0.000000000000
 H    3.474026217217   -1.391550015518    0.900200000000
 H    2.234616217217   -2.329320015518    0.000000000000
 H    3.474026217217   -1.391550015518   -0.900200000000
 K   -0.130363782783   -0.000000015518    2.543950000000
 K   -0.130363782783   -0.000000015518   -2.543950000000
 S   -1.530363782783   -0.000000015518    0.000000000000
 C   -2.682421026881   -1.415359725246    0.000000000000
 H   -3.310230676123   -1.391550791381    0.900202864130
 H   -2.070812075970   -2.329317366259    0.000000000000
 H   -3.310230676123   -1.391550791381   -0.900202864130
 C   -2.682420779854    1.415359895282    0.000000000000
 H   -3.310230433251    1.391551070991   -0.900202864130
 H   -2.070811669427    2.329317429549    0.000000000000
 H   -3.310230433251    1.391551070991    0.900202864130
