20

 H    3.566149428808    1.391549984482   -0.900200000000
 H    2.326739428808    2.329319984482    0.000000000000
 H    3.566149428808    1.391549984482    0.900200000000
 C    2.938349428808    1.415359984482    0.000000000000
 S    1.786289428808   -0.000000015518    0.000000000000
 C    2.938349428808   -1.415360015518    0.000000000000
 H    3.566149428808   -1.391550015518    0.900200000000
 H    2.326739428808   -2.329320015518    0.000000000000
 H    3.566149428808   -1.391550015518   -0.900200000000
 K   -0.038240571192   -0.000000015518    2.543950000000
 K   -0.038240571192   -0.000000015518   -2.543950000000
 S   -1.738240571192   -0.000000015518    0.000000000000
 C   -2.890297815290   -1.415359725246    0.000000000000
 H   -3.518107464532   -1.391550791381    0.900202864130
 H   -2.278688864378   -2.329317366259    0.000000000000
 H   -3.518107464532   -1.391550791381   -0.900202864130
 C   -2.890297568263    1.415359895282    0.000000000000
 H   -3.518107221660    1.391551070991   -0.900202864130
 H   -2.278688457836    2.329317429549    0.000000000000
 H   -3.518107221660    1.391551070991    0.900202864130
