20

 H    3.688980377596    1.391549984482   -0.900200000000
 H    2.449570377596    2.329319984482    0.000000000000
 H    3.688980377596    1.391549984482    0.900200000000
 C    3.061180377596    1.415359984482    0.000000000000
 S    1.909120377596   -0.000000015518    0.000000000000
 C    3.061180377596   -1.415360015518    0.000000000000
 H    3.688980377596   -1.391550015518    0.900200000000
 H    2.449570377596   -2.329320015518    0.000000000000
 H    3.688980377596   -1.391550015518   -0.900200000000
 K    0.084590377596   -0.000000015518    2.543950000000
 K    0.084590377596   -0.000000015518   -2.543950000000
 S   -2.015409622404   -0.000000015518    0.000000000000
 C   -3.167466866502   -1.415359725246    0.000000000000
 H   -3.795276515743   -1.391550791381    0.900202864130
 H   -2.555857915590   -2.329317366259    0.000000000000
 H   -3.795276515743   -1.391550791381   -0.900202864130
 C   -3.167466619475    1.415359895282    0.000000000000
 H   -3.795276272872    1.391551070991   -0.900202864130
 H   -2.555857509048    2.329317429549    0.000000000000
 H   -3.795276272872    1.391551070991    0.900202864130
