20

 H    3.903934537975    1.391549984482   -0.900200000000
 H    2.664524537975    2.329319984482    0.000000000000
 H    3.903934537975    1.391549984482    0.900200000000
 C    3.276134537975    1.415359984482    0.000000000000
 S    2.124074537975   -0.000000015518    0.000000000000
 C    3.276134537975   -1.415360015518    0.000000000000
 H    3.903934537975   -1.391550015518    0.900200000000
 H    2.664524537975   -2.329320015518    0.000000000000
 H    3.903934537975   -1.391550015518   -0.900200000000
 K    0.299544537975   -0.000000015518    2.543950000000
 K    0.299544537975   -0.000000015518   -2.543950000000
 S   -2.500455462025   -0.000000015518    0.000000000000
 C   -3.652512706122   -1.415359725246    0.000000000000
 H   -4.280322355364   -1.391550791381    0.900202864130
 H   -3.040903755211   -2.329317366259    0.000000000000
 H   -4.280322355364   -1.391550791381   -0.900202864130
 C   -3.652512459095    1.415359895282    0.000000000000
 H   -4.280322112492    1.391551070991   -0.900202864130
 H   -3.040903348668    2.329317429549    0.000000000000
 H   -4.280322112492    1.391551070991    0.900202864130
