20

 H    3.934642275173    1.391549984482   -0.900200000000
 H    2.695232275173    2.329319984482    0.000000000000
 H    3.934642275173    1.391549984482    0.900200000000
 C    3.306842275173    1.415359984482    0.000000000000
 S    2.154782275173   -0.000000015518    0.000000000000
 C    3.306842275173   -1.415360015518    0.000000000000
 H    3.934642275173   -1.391550015518    0.900200000000
 H    2.695232275173   -2.329320015518    0.000000000000
 H    3.934642275173   -1.391550015518   -0.900200000000
 K    0.330252275173   -0.000000015518    2.543950000000
 K    0.330252275173   -0.000000015518   -2.543950000000
 S   -2.569747724827   -0.000000015518    0.000000000000
 C   -3.721804968925   -1.415359725246    0.000000000000
 H   -4.349614618167   -1.391550791381    0.900202864130
 H   -3.110196018014   -2.329317366259    0.000000000000
 H   -4.349614618167   -1.391550791381   -0.900202864130
 C   -3.721804721898    1.415359895282    0.000000000000
 H   -4.349614375295    1.391551070991   -0.900202864130
 H   -3.110195611471    2.329317429549    0.000000000000
 H   -4.349614375295    1.391551070991    0.900202864130
