20

 H    4.088180961158    1.391549984482   -0.900200000000
 H    2.848770961158    2.329319984482    0.000000000000
 H    4.088180961158    1.391549984482    0.900200000000
 C    3.460380961158    1.415359984482    0.000000000000
 S    2.308320961158   -0.000000015518    0.000000000000
 C    3.460380961158   -1.415360015518    0.000000000000
 H    4.088180961158   -1.391550015518    0.900200000000
 H    2.848770961158   -2.329320015518    0.000000000000
 H    4.088180961158   -1.391550015518   -0.900200000000
 K    0.483790961158   -0.000000015518    2.543950000000
 K    0.483790961158   -0.000000015518   -2.543950000000
 S   -2.916209038842   -0.000000015518    0.000000000000
 C   -4.068266282940   -1.415359725246    0.000000000000
 H   -4.696075932181   -1.391550791381    0.900202864130
 H   -3.456657332028   -2.329317366259    0.000000000000
 H   -4.696075932181   -1.391550791381   -0.900202864130
 C   -4.068266035913    1.415359895282    0.000000000000
 H   -4.696075689310    1.391551070991   -0.900202864130
 H   -3.456656925486    2.329317429549    0.000000000000
 H   -4.696075689310    1.391551070991    0.900202864130
