20

 H    4.180304172749    1.391549984482   -0.900200000000
 H    2.940894172749    2.329319984482    0.000000000000
 H    4.180304172749    1.391549984482    0.900200000000
 C    3.552504172749    1.415359984482    0.000000000000
 S    2.400444172749   -0.000000015518    0.000000000000
 C    3.552504172749   -1.415360015518    0.000000000000
 H    4.180304172749   -1.391550015518    0.900200000000
 H    2.940894172749   -2.329320015518    0.000000000000
 H    4.180304172749   -1.391550015518   -0.900200000000
 K    0.575914172749   -0.000000015518    2.543950000000
 K    0.575914172749   -0.000000015518   -2.543950000000
 S   -3.124085827251   -0.000000015518    0.000000000000
 C   -4.276143071349   -1.415359725246    0.000000000000
 H   -4.903952720590   -1.391550791381    0.900202864130
 H   -3.664534120437   -2.329317366259    0.000000000000
 H   -4.903952720590   -1.391550791381   -0.900202864130
 C   -4.276142824322    1.415359895282    0.000000000000
 H   -4.903952477719    1.391551070991   -0.900202864130
 H   -3.664533713895    2.329317429549    0.000000000000
 H   -4.903952477719    1.391551070991    0.900202864130
