20

 H    4.241719647143    1.391549984482   -0.900200000000
 H    3.002309647143    2.329319984482    0.000000000000
 H    4.241719647143    1.391549984482    0.900200000000
 C    3.613919647143    1.415359984482    0.000000000000
 S    2.461859647143   -0.000000015518    0.000000000000
 C    3.613919647143   -1.415360015518    0.000000000000
 H    4.241719647143   -1.391550015518    0.900200000000
 H    3.002309647143   -2.329320015518    0.000000000000
 H    4.241719647143   -1.391550015518   -0.900200000000
 K    0.637329647143   -0.000000015518    2.543950000000
 K    0.637329647143   -0.000000015518   -2.543950000000
 S   -3.262670352857   -0.000000015518    0.000000000000
 C   -4.414727596954   -1.415359725246    0.000000000000
 H   -5.042537246196   -1.391550791381    0.900202864130
 H   -3.803118646043   -2.329317366259    0.000000000000
 H   -5.042537246196   -1.391550791381   -0.900202864130
 C   -4.414727349928    1.415359895282    0.000000000000
 H   -5.042537003325    1.391551070991   -0.900202864130
 H   -3.803118239500    2.329317429549    0.000000000000
 H   -5.042537003325    1.391551070991    0.900202864130
