20

 H    4.272427384340    1.391549984482   -0.900200000000
 H    3.033017384340    2.329319984482    0.000000000000
 H    4.272427384340    1.391549984482    0.900200000000
 C    3.644627384340    1.415359984482    0.000000000000
 S    2.492567384340   -0.000000015518    0.000000000000
 C    3.644627384340   -1.415360015518    0.000000000000
 H    4.272427384340   -1.391550015518    0.900200000000
 H    3.033017384340   -2.329320015518    0.000000000000
 H    4.272427384340   -1.391550015518   -0.900200000000
 K    0.668037384340   -0.000000015518    2.543950000000
 K    0.668037384340   -0.000000015518   -2.543950000000
 S   -3.331962615660   -0.000000015518    0.000000000000
 C   -4.484019859757   -1.415359725246    0.000000000000
 H   -5.111829508999   -1.391550791381    0.900202864130
 H   -3.872410908846   -2.329317366259    0.000000000000
 H   -5.111829508999   -1.391550791381   -0.900202864130
 C   -4.484019612731    1.415359895282    0.000000000000
 H   -5.111829266128    1.391551070991   -0.900202864130
 H   -3.872410502303    2.329317429549    0.000000000000
 H   -5.111829266128    1.391551070991    0.900202864130
