20

 H    4.333842858734    1.391549984482   -0.900200000000
 H    3.094432858734    2.329319984482    0.000000000000
 H    4.333842858734    1.391549984482    0.900200000000
 C    3.706042858734    1.415359984482    0.000000000000
 S    2.553982858734   -0.000000015518    0.000000000000
 C    3.706042858734   -1.415360015518    0.000000000000
 H    4.333842858734   -1.391550015518    0.900200000000
 H    3.094432858734   -2.329320015518    0.000000000000
 H    4.333842858734   -1.391550015518   -0.900200000000
 K    0.729452858734   -0.000000015518    2.543950000000
 K    0.729452858734   -0.000000015518   -2.543950000000
 S   -3.470547141266   -0.000000015518    0.000000000000
 C   -4.622604385363   -1.415359725246    0.000000000000
 H   -5.250414034605   -1.391550791381    0.900202864130
 H   -4.010995434452   -2.329317366259    0.000000000000
 H   -5.250414034605   -1.391550791381   -0.900202864130
 C   -4.622604138336    1.415359895282    0.000000000000
 H   -5.250413791734    1.391551070991   -0.900202864130
 H   -4.010995027909    2.329317429549    0.000000000000
 H   -5.250413791734    1.391551070991    0.900202864130
