20

 H    4.579504756311    1.391549984482   -0.900200000000
 H    3.340094756311    2.329319984482    0.000000000000
 H    4.579504756311    1.391549984482    0.900200000000
 C    3.951704756311    1.415359984482    0.000000000000
 S    2.799644756311   -0.000000015518    0.000000000000
 C    3.951704756311   -1.415360015518    0.000000000000
 H    4.579504756311   -1.391550015518    0.900200000000
 H    3.340094756311   -2.329320015518    0.000000000000
 H    4.579504756311   -1.391550015518   -0.900200000000
 K    0.975114756311   -0.000000015518    2.543950000000
 K    0.975114756311   -0.000000015518   -2.543950000000
 S   -4.024885243689   -0.000000015518    0.000000000000
 C   -5.176942487787   -1.415359725246    0.000000000000
 H   -5.804752137028   -1.391550791381    0.900202864130
 H   -4.565333536875   -2.329317366259    0.000000000000
 H   -5.804752137028   -1.391550791381   -0.900202864130
 C   -5.176942240760    1.415359895282    0.000000000000
 H   -5.804751894157    1.391551070991   -0.900202864130
 H   -4.565333130333    2.329317429549    0.000000000000
 H   -5.804751894157    1.391551070991    0.900202864130
