20

 H    4.794458916690    1.391549984482   -0.900200000000
 H    3.555048916690    2.329319984482    0.000000000000
 H    4.794458916690    1.391549984482    0.900200000000
 C    4.166658916690    1.415359984482    0.000000000000
 S    3.014598916690   -0.000000015518    0.000000000000
 C    4.166658916690   -1.415360015518    0.000000000000
 H    4.794458916690   -1.391550015518    0.900200000000
 H    3.555048916690   -2.329320015518    0.000000000000
 H    4.794458916690   -1.391550015518   -0.900200000000
 K    1.190068916690   -0.000000015518    2.543950000000
 K    1.190068916690   -0.000000015518   -2.543950000000
 S   -4.509931083310   -0.000000015518    0.000000000000
 C   -5.661988327407   -1.415359725246    0.000000000000
 H   -6.289797976649   -1.391550791381    0.900202864130
 H   -5.050379376496   -2.329317366259    0.000000000000
 H   -6.289797976649   -1.391550791381   -0.900202864130
 C   -5.661988080380    1.415359895282    0.000000000000
 H   -6.289797733778    1.391551070991   -0.900202864130
 H   -5.050378969953    2.329317429549    0.000000000000
 H   -6.289797733778    1.391551070991    0.900202864130
