20

 H    4.825166653887    1.391549984482   -0.900200000000
 H    3.585756653887    2.329319984482    0.000000000000
 H    4.825166653887    1.391549984482    0.900200000000
 C    4.197366653887    1.415359984482    0.000000000000
 S    3.045306653887   -0.000000015518    0.000000000000
 C    4.197366653887   -1.415360015518    0.000000000000
 H    4.825166653887   -1.391550015518    0.900200000000
 H    3.585756653887   -2.329320015518    0.000000000000
 H    4.825166653887   -1.391550015518   -0.900200000000
 K    1.220776653887   -0.000000015518    2.543950000000
 K    1.220776653887   -0.000000015518   -2.543950000000
 S   -4.579223346113   -0.000000015518    0.000000000000
 C   -5.731280590210   -1.415359725246    0.000000000000
 H   -6.359090239452   -1.391550791381    0.900202864130
 H   -5.119671639299   -2.329317366259    0.000000000000
 H   -6.359090239452   -1.391550791381   -0.900202864130
 C   -5.731280343183    1.415359895282    0.000000000000
 H   -6.359089996580    1.391551070991   -0.900202864130
 H   -5.119671232756    2.329317429549    0.000000000000
 H   -6.359089996580    1.391551070991    0.900202864130
