20

 H    4.917289865479    1.391549984482   -0.900200000000
 H    3.677879865479    2.329319984482    0.000000000000
 H    4.917289865479    1.391549984482    0.900200000000
 C    4.289489865479    1.415359984482    0.000000000000
 S    3.137429865479   -0.000000015518    0.000000000000
 C    4.289489865479   -1.415360015518    0.000000000000
 H    4.917289865479   -1.391550015518    0.900200000000
 H    3.677879865479   -2.329320015518    0.000000000000
 H    4.917289865479   -1.391550015518   -0.900200000000
 K    1.312899865479   -0.000000015518    2.543950000000
 K    1.312899865479   -0.000000015518   -2.543950000000
 S   -4.787100134521   -0.000000015518    0.000000000000
 C   -5.939157378619   -1.415359725246    0.000000000000
 H   -6.566967027861   -1.391550791381    0.900202864130
 H   -5.327548427708   -2.329317366259    0.000000000000
 H   -6.566967027861   -1.391550791381   -0.900202864130
 C   -5.939157131592    1.415359895282    0.000000000000
 H   -6.566966784989    1.391551070991   -0.900202864130
 H   -5.327548021165    2.329317429549    0.000000000000
 H   -6.566966784989    1.391551070991    0.900202864130
