20

 H    5.009413077070    1.391549984482   -0.900200000000
 H    3.770003077070    2.329319984482    0.000000000000
 H    5.009413077070    1.391549984482    0.900200000000
 C    4.381613077070    1.415359984482    0.000000000000
 S    3.229553077070   -0.000000015518    0.000000000000
 C    4.381613077070   -1.415360015518    0.000000000000
 H    5.009413077070   -1.391550015518    0.900200000000
 H    3.770003077070   -2.329320015518    0.000000000000
 H    5.009413077070   -1.391550015518   -0.900200000000
 K    1.405023077070   -0.000000015518    2.543950000000
 K    1.405023077070   -0.000000015518   -2.543950000000
 S   -4.994976922930   -0.000000015518    0.000000000000
 C   -6.147034167028   -1.415359725246    0.000000000000
 H   -6.774843816270   -1.391550791381    0.900202864130
 H   -5.535425216116   -2.329317366259    0.000000000000
 H   -6.774843816270   -1.391550791381   -0.900202864130
 C   -6.147033920001    1.415359895282    0.000000000000
 H   -6.774843573398    1.391551070991   -0.900202864130
 H   -5.535424809574    2.329317429549    0.000000000000
 H   -6.774843573398    1.391551070991    0.900202864130
