20

 H    5.132244025858    1.391549984482   -0.900200000000
 H    3.892834025858    2.329319984482    0.000000000000
 H    5.132244025858    1.391549984482    0.900200000000
 C    4.504444025858    1.415359984482    0.000000000000
 S    3.352384025858   -0.000000015518    0.000000000000
 C    4.504444025858   -1.415360015518    0.000000000000
 H    5.132244025858   -1.391550015518    0.900200000000
 H    3.892834025858   -2.329320015518    0.000000000000
 H    5.132244025858   -1.391550015518   -0.900200000000
 K    1.527854025858   -0.000000015518    2.543950000000
 K    1.527854025858   -0.000000015518   -2.543950000000
 S   -5.272145974142   -0.000000015518    0.000000000000
 C   -6.424203218240   -1.415359725246    0.000000000000
 H   -7.052012867481   -1.391550791381    0.900202864130
 H   -5.812594267328   -2.329317366259    0.000000000000
 H   -7.052012867481   -1.391550791381   -0.900202864130
 C   -6.424202971213    1.415359895282    0.000000000000
 H   -7.052012624610    1.391551070991   -0.900202864130
 H   -5.812593860786    2.329317429549    0.000000000000
 H   -7.052012624610    1.391551070991    0.900202864130
