20

 H    5.162951763055    1.391549984482   -0.900200000000
 H    3.923541763055    2.329319984482    0.000000000000
 H    5.162951763055    1.391549984482    0.900200000000
 C    4.535151763055    1.415359984482    0.000000000000
 S    3.383091763055   -0.000000015518    0.000000000000
 C    4.535151763055   -1.415360015518    0.000000000000
 H    5.162951763055   -1.391550015518    0.900200000000
 H    3.923541763055   -2.329320015518    0.000000000000
 H    5.162951763055   -1.391550015518   -0.900200000000
 K    1.558561763055   -0.000000015518    2.543950000000
 K    1.558561763055   -0.000000015518   -2.543950000000
 S   -5.341438236945   -0.000000015518    0.000000000000
 C   -6.493495481043   -1.415359725246    0.000000000000
 H   -7.121305130284   -1.391550791381    0.900202864130
 H   -5.881886530131   -2.329317366259    0.000000000000
 H   -7.121305130284   -1.391550791381   -0.900202864130
 C   -6.493495234016    1.415359895282    0.000000000000
 H   -7.121304887413    1.391551070991   -0.900202864130
 H   -5.881886123588    2.329317429549    0.000000000000
 H   -7.121304887413    1.391551070991    0.900202864130
