20

 H    5.224367237449    1.391549984482   -0.900200000000
 H    3.984957237449    2.329319984482    0.000000000000
 H    5.224367237449    1.391549984482    0.900200000000
 C    4.596567237449    1.415359984482    0.000000000000
 S    3.444507237449   -0.000000015518    0.000000000000
 C    4.596567237449   -1.415360015518    0.000000000000
 H    5.224367237449   -1.391550015518    0.900200000000
 H    3.984957237449   -2.329320015518    0.000000000000
 H    5.224367237449   -1.391550015518   -0.900200000000
 K    1.619977237449   -0.000000015518    2.543950000000
 K    1.619977237449   -0.000000015518   -2.543950000000
 S   -5.480022762551   -0.000000015518    0.000000000000
 C   -6.632080006648   -1.415359725246    0.000000000000
 H   -7.259889655890   -1.391550791381    0.900202864130
 H   -6.020471055737   -2.329317366259    0.000000000000
 H   -7.259889655890   -1.391550791381   -0.900202864130
 C   -6.632079759621    1.415359895282    0.000000000000
 H   -7.259889413019    1.391551070991   -0.900202864130
 H   -6.020470649194    2.329317429549    0.000000000000
 H   -7.259889413019    1.391551070991    0.900202864130
