20

 H    5.500736872223    1.391549984482   -0.900200000000
 H    4.261326872223    2.329319984482    0.000000000000
 H    5.500736872223    1.391549984482    0.900200000000
 C    4.872936872223    1.415359984482    0.000000000000
 S    3.720876872223   -0.000000015518    0.000000000000
 C    4.872936872223   -1.415360015518    0.000000000000
 H    5.500736872223   -1.391550015518    0.900200000000
 H    4.261326872223   -2.329320015518    0.000000000000
 H    5.500736872223   -1.391550015518   -0.900200000000
 K    1.896346872223   -0.000000015518    2.543950000000
 K    1.896346872223   -0.000000015518   -2.543950000000
 S   -6.103653127777   -0.000000015518    0.000000000000
 C   -7.255710371875   -1.415359725246    0.000000000000
 H   -7.883520021116   -1.391550791381    0.900202864130
 H   -6.644101420963   -2.329317366259    0.000000000000
 H   -7.883520021116   -1.391550791381   -0.900202864130
 C   -7.255710124848    1.415359895282    0.000000000000
 H   -7.883519778245    1.391551070991   -0.900202864130
 H   -6.644101014421    2.329317429549    0.000000000000
 H   -7.883519778245    1.391551070991    0.900202864130
