20

 H    5.562152346617    1.391549984482   -0.900200000000
 H    4.322742346617    2.329319984482    0.000000000000
 H    5.562152346617    1.391549984482    0.900200000000
 C    4.934352346617    1.415359984482    0.000000000000
 S    3.782292346617   -0.000000015518    0.000000000000
 C    4.934352346617   -1.415360015518    0.000000000000
 H    5.562152346617   -1.391550015518    0.900200000000
 H    4.322742346617   -2.329320015518    0.000000000000
 H    5.562152346617   -1.391550015518   -0.900200000000
 K    1.957762346617   -0.000000015518    2.543950000000
 K    1.957762346617   -0.000000015518   -2.543950000000
 S   -6.242237653383   -0.000000015518    0.000000000000
 C   -7.394294897481   -1.415359725246    0.000000000000
 H   -8.022104546722   -1.391550791381    0.900202864130
 H   -6.782685946569   -2.329317366259    0.000000000000
 H   -8.022104546722   -1.391550791381   -0.900202864130
 C   -7.394294650454    1.415359895282    0.000000000000
 H   -8.022104303851    1.391551070991   -0.900202864130
 H   -6.782685540027    2.329317429549    0.000000000000
 H   -8.022104303851    1.391551070991    0.900202864130
