20

 H    5.592860083814    1.391549984482   -0.900200000000
 H    4.353450083814    2.329319984482    0.000000000000
 H    5.592860083814    1.391549984482    0.900200000000
 C    4.965060083814    1.415359984482    0.000000000000
 S    3.813000083814   -0.000000015518    0.000000000000
 C    4.965060083814   -1.415360015518    0.000000000000
 H    5.592860083814   -1.391550015518    0.900200000000
 H    4.353450083814   -2.329320015518    0.000000000000
 H    5.592860083814   -1.391550015518   -0.900200000000
 K    1.988470083814   -0.000000015518    2.543950000000
 K    1.988470083814   -0.000000015518   -2.543950000000
 S   -6.311529916186   -0.000000015518    0.000000000000
 C   -7.463587160284   -1.415359725246    0.000000000000
 H   -8.091396809525   -1.391550791381    0.900202864130
 H   -6.851978209372   -2.329317366259    0.000000000000
 H   -8.091396809525   -1.391550791381   -0.900202864130
 C   -7.463586913257    1.415359895282    0.000000000000
 H   -8.091396566654    1.391551070991   -0.900202864130
 H   -6.851977802830    2.329317429549    0.000000000000
 H   -8.091396566654    1.391551070991    0.900202864130
