20

 H    5.654275558208    1.391549984482   -0.900200000000
 H    4.414865558208    2.329319984482    0.000000000000
 H    5.654275558208    1.391549984482    0.900200000000
 C    5.026475558208    1.415359984482    0.000000000000
 S    3.874415558208   -0.000000015518    0.000000000000
 C    5.026475558208   -1.415360015518    0.000000000000
 H    5.654275558208   -1.391550015518    0.900200000000
 H    4.414865558208   -2.329320015518    0.000000000000
 H    5.654275558208   -1.391550015518   -0.900200000000
 K    2.049885558208   -0.000000015518    2.543950000000
 K    2.049885558208   -0.000000015518   -2.543950000000
 S   -6.450114441792   -0.000000015518    0.000000000000
 C   -7.602171685889   -1.415359725246    0.000000000000
 H   -8.229981335131   -1.391550791381    0.900202864130
 H   -6.990562734978   -2.329317366259    0.000000000000
 H   -8.229981335131   -1.391550791381   -0.900202864130
 C   -7.602171438863    1.415359895282    0.000000000000
 H   -8.229981092260    1.391551070991   -0.900202864130
 H   -6.990562328435    2.329317429549    0.000000000000
 H   -8.229981092260    1.391551070991    0.900202864130
