20

 H    5.746398769799    1.391549984482   -0.900200000000
 H    4.506988769799    2.329319984482    0.000000000000
 H    5.746398769799    1.391549984482    0.900200000000
 C    5.118598769799    1.415359984482    0.000000000000
 S    3.966538769799   -0.000000015518    0.000000000000
 C    5.118598769799   -1.415360015518    0.000000000000
 H    5.746398769799   -1.391550015518    0.900200000000
 H    4.506988769799   -2.329320015518    0.000000000000
 H    5.746398769799   -1.391550015518   -0.900200000000
 K    2.142008769799   -0.000000015518    2.543950000000
 K    2.142008769799   -0.000000015518   -2.543950000000
 S   -6.657991230201   -0.000000015518    0.000000000000
 C   -7.810048474298   -1.415359725246    0.000000000000
 H   -8.437858123540   -1.391550791381    0.900202864130
 H   -7.198439523387   -2.329317366259    0.000000000000
 H   -8.437858123540   -1.391550791381   -0.900202864130
 C   -7.810048227271    1.415359895282    0.000000000000
 H   -8.437857880668    1.391551070991   -0.900202864130
 H   -7.198439116844    2.329317429549    0.000000000000
 H   -8.437857880668    1.391551070991    0.900202864130
