20

 H    5.777106506996    1.391549984482   -0.900200000000
 H    4.537696506996    2.329319984482    0.000000000000
 H    5.777106506996    1.391549984482    0.900200000000
 C    5.149306506996    1.415359984482    0.000000000000
 S    3.997246506996   -0.000000015518    0.000000000000
 C    5.149306506996   -1.415360015518    0.000000000000
 H    5.777106506996   -1.391550015518    0.900200000000
 H    4.537696506996   -2.329320015518    0.000000000000
 H    5.777106506996   -1.391550015518   -0.900200000000
 K    2.172716506996   -0.000000015518    2.543950000000
 K    2.172716506996   -0.000000015518   -2.543950000000
 S   -6.727283493004   -0.000000015518    0.000000000000
 C   -7.879340737101   -1.415359725246    0.000000000000
 H   -8.507150386343   -1.391550791381    0.900202864130
 H   -7.267731786190   -2.329317366259    0.000000000000
 H   -8.507150386343   -1.391550791381   -0.900202864130
 C   -7.879340490074    1.415359895282    0.000000000000
 H   -8.507150143471    1.391551070991   -0.900202864130
 H   -7.267731379647    2.329317429549    0.000000000000
 H   -8.507150143471    1.391551070991    0.900202864130
