20

 H    5.930645192982    1.391549984482   -0.900200000000
 H    4.691235192982    2.329319984482    0.000000000000
 H    5.930645192982    1.391549984482    0.900200000000
 C    5.302845192982    1.415359984482    0.000000000000
 S    4.150785192982   -0.000000015518    0.000000000000
 C    5.302845192982   -1.415360015518    0.000000000000
 H    5.930645192982   -1.391550015518    0.900200000000
 H    4.691235192982   -2.329320015518    0.000000000000
 H    5.930645192982   -1.391550015518   -0.900200000000
 K    2.326255192982   -0.000000015518    2.543950000000
 K    2.326255192982   -0.000000015518   -2.543950000000
 S   -7.073744807018   -0.000000015518    0.000000000000
 C   -8.225802051116   -1.415359725246    0.000000000000
 H   -8.853611700358   -1.391550791381    0.900202864130
 H   -7.614193100204   -2.329317366259    0.000000000000
 H   -8.853611700358   -1.391550791381   -0.900202864130
 C   -8.225801804089    1.415359895282    0.000000000000
 H   -8.853611457486    1.391551070991   -0.900202864130
 H   -7.614192693662    2.329317429549    0.000000000000
 H   -8.853611457486    1.391551070991    0.900202864130
