20

 H    5.961352930179    1.391549984482   -0.900200000000
 H    4.721942930179    2.329319984482    0.000000000000
 H    5.961352930179    1.391549984482    0.900200000000
 C    5.333552930179    1.415359984482    0.000000000000
 S    4.181492930179   -0.000000015518    0.000000000000
 C    5.333552930179   -1.415360015518    0.000000000000
 H    5.961352930179   -1.391550015518    0.900200000000
 H    4.721942930179   -2.329320015518    0.000000000000
 H    5.961352930179   -1.391550015518   -0.900200000000
 K    2.356962930179   -0.000000015518    2.543950000000
 K    2.356962930179   -0.000000015518   -2.543950000000
 S   -7.143037069821   -0.000000015518    0.000000000000
 C   -8.295094313919   -1.415359725246    0.000000000000
 H   -8.922903963160   -1.391550791381    0.900202864130
 H   -7.683485363007   -2.329317366259    0.000000000000
 H   -8.922903963160   -1.391550791381   -0.900202864130
 C   -8.295094066892    1.415359895282    0.000000000000
 H   -8.922903720289    1.391551070991   -0.900202864130
 H   -7.683484956465    2.329317429549    0.000000000000
 H   -8.922903720289    1.391551070991    0.900202864130
