14

 N    1.054094707425    1.034252077131   -0.001718804103
 C   -0.031352235478    1.857011046959    0.001423067118
 H    0.160168604404    2.932068019458   -0.001081531424
 C    0.972230986743   -0.385018384595   -0.000701135219
 O    2.015974234061   -1.038260274656   -0.003181976531
 N   -0.301607101938   -0.927158016188    0.009912098911
 C   -1.359293214751   -0.125805985313    0.007419054083
 N   -2.591286331207   -0.729605014393   -0.037986769126
 H   -2.600220799528   -1.729298900904    0.131583839439
 H   -3.409864075410   -0.203176694993    0.236913355671
 C   -1.290711216317    1.315570853882    0.003935620417
 H   -2.179234932002    1.946888445126   -0.005546333610
 H    1.998034830352    1.408900289573   -0.005024700331
LI    2.863641284927   -1.568785025712   -0.005196770345
