14

 N    1.038982208808    1.043710454166   -0.001682883669
 C   -0.046464734095    1.866469423994    0.001458987552
 H    0.145056105787    2.941526396493   -0.001045610990
 C    0.957118488126   -0.375560007560   -0.000665214785
 O    2.000861735444   -1.028801897621   -0.003146056097
 N   -0.316719600555   -0.917699639153    0.009948019345
 C   -1.374405713368   -0.116347608278    0.007454974517
 N   -2.606398829824   -0.720146637358   -0.037950848692
 H   -2.615333298145   -1.719840523869    0.131619759873
 H   -3.424976574027   -0.193718317958    0.236949276105
 C   -1.305823714934    1.325029230917    0.003971540851
 H   -2.194347430619    1.956346822161   -0.005510413176
 H    1.982922331735    1.418358666608   -0.004988779897
LI    3.102828901569   -1.718484073994   -0.005765288055
