14

 N    1.033944709269    1.046863246511   -0.001670910190
 C   -0.051502233634    1.869622216339    0.001470961031
 H    0.140018606248    2.944679188838   -0.001033637511
 C    0.952080988587   -0.372407215215   -0.000653241306
 O    1.995824235905   -1.025649105276   -0.003134082618
 N   -0.321757100094   -0.914546846808    0.009959992824
 C   -1.379443212907   -0.113194815933    0.007466947996
 N   -2.611436329363   -0.716993845013   -0.037938875213
 H   -2.620370797684   -1.716687731524    0.131631733352
 H   -3.430014073566   -0.190565525613    0.236961249584
 C   -1.310861214473    1.328182023262    0.003983514330
 H   -2.199384930158    1.959499614506   -0.005498439697
 H    1.977884832196    1.421511458953   -0.004976806418
LI    3.182558107116   -1.768383756755   -0.005954793959
