14

 N    1.028907209729    1.050016038856   -0.001658936712
 C   -0.056539733174    1.872775008684    0.001482934509
 H    0.134981106708    2.947831981183   -0.001021664033
 C    0.947043489047   -0.369254422870   -0.000641267828
 O    1.990786736365   -1.022496312931   -0.003122109140
 N   -0.326794599634   -0.911394054463    0.009971966302
 C   -1.384480712447   -0.110042023588    0.007478921474
 N   -2.616473828903   -0.713841052668   -0.037926901735
 H   -2.625408297224   -1.713534939179    0.131643706830
 H   -3.435051573106   -0.187412733268    0.236973223062
 C   -1.315898714013    1.331334815607    0.003995487808
 H   -2.204422429698    1.962652406851   -0.005486466219
 H    1.972847332656    1.424664251298   -0.004964832940
LI    3.262287312663   -1.818283439515   -0.006144299862
