14

 N    1.013794711112    1.059474415890   -0.001623016278
 C   -0.071652231791    1.882233385718    0.001518854943
 H    0.119868608091    2.957290358217   -0.000985743599
 C    0.931930990430   -0.359796045836   -0.000605347394
 O    1.975674237748   -1.013037935897   -0.003086188706
 N   -0.341907098251   -0.901935677429    0.010007886736
 C   -1.399593211064   -0.100583646554    0.007514841908
 N   -2.631586327520   -0.704382675634   -0.037890981301
 H   -2.640520795841   -1.704076562145    0.131679627264
 H   -3.450164071723   -0.177954356234    0.237009143496
 C   -1.331011212630    1.340793192641    0.004031408242
 H   -2.219534928315    1.972110783885   -0.005450545785
 H    1.957734834039    1.434122628332   -0.004928912506
LI    3.501474929305   -1.967982487797   -0.006712817572
