14

 N    1.008757211573    1.062627208235   -0.001611042800
 C   -0.076689731330    1.885386178063    0.001530828421
 H    0.114831108552    2.960443150562   -0.000973770121
 C    0.926893490891   -0.356643253491   -0.000593373916
 O    1.970636738209   -1.009885143552   -0.003074215228
 N   -0.346944597790   -0.898782885084    0.010019860214
 C   -1.404630710603   -0.097430854209    0.007526815386
 N   -2.636623827059   -0.701229883289   -0.037879007823
 H   -2.645558295380   -1.700923769800    0.131691600742
 H   -3.455201571262   -0.174801563889    0.237021116974
 C   -1.336048712169    1.343945984986    0.004043381720
 H   -2.224572427854    1.975263576230   -0.005438572307
 H    1.952697334500    1.437275420677   -0.004916939028
LI    3.581204134853   -2.017882170558   -0.006902323475
