14

 N    0.600719748898    1.318003388170   -0.000641191069
 C   -0.484727194005    2.140762357998    0.002500680152
 H   -0.293206354123    3.215819330497   -0.000003918390
 C    0.518856028216   -0.101267073556    0.000376477815
 O    1.562599275534   -0.754508963617   -0.002104363497
 N   -0.754982060465   -0.643406705149    0.010989711945
 C   -1.812668173278    0.157945325726    0.008496667117
 N   -3.044661289734   -0.445853703354   -0.036909156092
 H   -3.053595758055   -1.445547589865    0.132661452473
 H   -3.863239033937    0.080574616046    0.237990968705
 C   -1.744086174844    1.599322164921    0.005013233451
 H   -2.632609890529    2.230639756165   -0.004468720576
 H    1.544659871825    1.692651600612   -0.003947087297
LI   10.039269784188   -6.059756474177   -0.022252301642
