14

 N    0.973494714798    1.084696754649   -0.001527228453
 C   -0.111952228105    1.907455724477    0.001614642768
 H    0.079568611777    2.982512696976   -0.000889955774
 C    0.891630994116   -0.334573707077   -0.000509559569
 O    1.935374241434   -0.987815597138   -0.002990400881
 N   -0.382207094565   -0.876713338670    0.010103674561
 C   -1.439893207378   -0.075361307795    0.007610629733
 N   -2.671886323834   -0.679160336875   -0.037795193476
 H   -2.680820792155   -1.678854223386    0.131775415089
 H   -3.490464068037   -0.152732017475    0.237104931321
 C   -1.371311208944    1.366015531400    0.004127196067
 H   -2.259834924629    1.997333122644   -0.005354757960
 H    1.917434837725    1.459344967091   -0.004833124681
LI    4.139308573684   -2.367179949883   -0.008228864798
