14

 N    0.953344716641    1.097307924029   -0.001479334540
 C   -0.132102226262    1.920066893857    0.001662536681
 H    0.059418613620    2.995123866356   -0.000842061861
 C    0.871480995959   -0.321962537697   -0.000461665656
 O    1.915224243277   -0.975204427758   -0.002942506968
 N   -0.402357092722   -0.864102169290    0.010151568474
 C   -1.460043205535   -0.062750138415    0.007658523646
 N   -2.692036321991   -0.666549167495   -0.037747299563
 H   -2.700970790312   -1.666243054006    0.131823309002
 H   -3.510614066194   -0.140120848095    0.237152825234
 C   -1.391461207101    1.378626700780    0.004175089980
 H   -2.279984922786    2.009944292024   -0.005306864047
 H    1.897284839568    1.471956136471   -0.004785230768
LI    4.458225395874   -2.566778680926   -0.008986888411
