14

 N    0.943269717563    1.103613508719   -0.001455387584
 C   -0.142177225340    1.926372478547    0.001686483637
 H    0.049343614542    3.001429451046   -0.000818114905
 C    0.861405996881   -0.315656953007   -0.000437718700
 O    1.905149244199   -0.968898843068   -0.002918560012
 N   -0.412432091800   -0.857796584600    0.010175515430
 C   -1.470118204613   -0.056444553725    0.007682470602
 N   -2.702111321069   -0.660243582805   -0.037723352607
 H   -2.711045789390   -1.659937469316    0.131847255958
 H   -3.520689065272   -0.133815263405    0.237176772190
 C   -1.401536206179    1.384932285470    0.004199036936
 H   -2.290059921864    2.016249876714   -0.005282917091
 H    1.887209840490    1.478261721161   -0.004761283812
LI    4.617683806968   -2.666578046448   -0.009365900218
