14

 N    0.918082219867    1.119377470443   -0.001395520193
 C   -0.167364723036    1.942136440271    0.001746351028
 H    0.024156116846    3.017193412770   -0.000758247514
 C    0.836218499185   -0.299892991283   -0.000377851309
 O    1.879961746503   -0.953134881344   -0.002858692621
 N   -0.437619589496   -0.842032622876    0.010235382821
 C   -1.495305702309   -0.040680592001    0.007742337993
 N   -2.727298818765   -0.644479621081   -0.037663485216
 H   -2.736233287086   -1.644173507592    0.131907123349
 H   -3.545876562968   -0.118051301681    0.237236639581
 C   -1.426723703875    1.400696247194    0.004258904327
 H   -2.315247419560    2.032013838438   -0.005223049700
 H    1.862022342794    1.494025682885   -0.004701416421
LI    5.016329834705   -2.916076460251   -0.010313429735
