14

 N    0.908007220789    1.125683055133   -0.001371573237
 C   -0.177439722114    1.948442024961    0.001770297984
 H    0.014081117768    3.023498997460   -0.000734300558
 C    0.826143500107   -0.293587406593   -0.000353904353
 O    1.869886747425   -0.946829296654   -0.002834745665
 N   -0.447694588574   -0.835727038186    0.010259329777
 C   -1.505380701387   -0.034375007311    0.007766284949
 N   -2.737373817843   -0.638174036391   -0.037639538260
 H   -2.746308286164   -1.637867922902    0.131931070305
 H   -3.555951562046   -0.111745716991    0.237260586537
 C   -1.436798702953    1.407001831884    0.004282851283
 H   -2.325322418638    2.038319423128   -0.005199102744
 H    1.851947343716    1.500331267575   -0.004677469465
LI    5.175788245800   -3.015875825773   -0.010692441541
