14

 N    0.902969721250    1.128835847478   -0.001359599758
 C   -0.182477221653    1.951594817306    0.001782271463
 H    0.009043618229    3.026651789805   -0.000722327079
 C    0.821106000568   -0.290434614248   -0.000341930874
 O    1.864849247886   -0.943676504309   -0.002822772186
 N   -0.452732088113   -0.832574245841    0.010271303256
 C   -1.510418200926   -0.031222214966    0.007778258428
 N   -2.742411317382   -0.635021244046   -0.037627564781
 H   -2.751345785703   -1.634715130557    0.131943043784
 H   -3.560989061585   -0.108592924646    0.237272560016
 C   -1.441836202492    1.410154624229    0.004294824762
 H   -2.330359918177    2.041472215473   -0.005187129265
 H    1.846909844177    1.503484059920   -0.004665495986
LI    5.255517451347   -3.065775508533   -0.010881947444
