14

 N    0.887857222632    1.138294224512   -0.001323679324
 C   -0.197589720271    1.961053194340    0.001818191897
 H   -0.006068880389    3.036110166839   -0.000686406645
 C    0.805993501950   -0.280976237214   -0.000306010440
 O    1.849736749268   -0.934218127275   -0.002786851752
 N   -0.467844586731   -0.823115868807    0.010307223690
 C   -1.525530699544   -0.021763837932    0.007814178862
 N   -2.757523816000   -0.625562867012   -0.037591644347
 H   -2.766458284321   -1.625256753523    0.131978964218
 H   -3.576101560203   -0.099134547612    0.237308480450
 C   -1.456948701110    1.419613001263    0.004330745196
 H   -2.345472416795    2.050930592507   -0.005151208831
 H    1.831797345559    1.512942436954   -0.004629575552
LI    5.494705067989   -3.215474556816   -0.011450465154
