14

 N    0.882819723093    1.141447016857   -0.001311705846
 C   -0.202627219810    1.964205986685    0.001830165375
 H   -0.011106379928    3.039262959184   -0.000674433167
 C    0.800956002411   -0.277823444869   -0.000294036962
 O    1.844699249729   -0.931065334930   -0.002774878274
 N   -0.472882086270   -0.819963076462    0.010319197168
 C   -1.530568199083   -0.018611045587    0.007826152340
 N   -2.762561315539   -0.622410074667   -0.037579670869
 H   -2.771495783860   -1.622103961178    0.131990937696
 H   -3.581139059742   -0.095981755267    0.237320453928
 C   -1.461986200649    1.422765793608    0.004342718674
 H   -2.350509916334    2.054083384852   -0.005139235353
 H    1.826759846020    1.516095229299   -0.004617602074
LI    5.574434273537   -3.265374239576   -0.011639971058
