14

 N    0.852594725858    1.160363770926   -0.001239864977
 C   -0.232852217045    1.983122740754    0.001902006244
 H   -0.041331377163    3.058179713253   -0.000602592298
 C    0.770731005176   -0.258906690800   -0.000222196093
 O    1.814474252494   -0.912148580861   -0.002703037405
 N   -0.503107083505   -0.801046322393    0.010391038037
 C   -1.560793196318    0.000305708482    0.007897993209
 N   -2.792786312774   -0.603493320598   -0.037507830000
 H   -2.801720781095   -1.603187207109    0.132062778565
 H   -3.611364056977   -0.077065001198    0.237392294797
 C   -1.492211197884    1.441682547677    0.004414559543
 H   -2.380734913569    2.073000138921   -0.005067394484
 H    1.796534848785    1.535011983368   -0.004545761205
LI    6.052809506821   -3.564772336141   -0.012777006477
