14

 N    0.832444727701    1.172974940306   -0.001191971064
 C   -0.253002215202    1.995733910134    0.001949900157
 H   -0.061481375320    3.070790882633   -0.000554698385
 C    0.750581007019   -0.246295521420   -0.000174302180
 O    1.794324254337   -0.899537411481   -0.002655143492
 N   -0.523257081662   -0.788435153013    0.010438931950
 C   -1.580943194475    0.012916877862    0.007945887122
 N   -2.812936310931   -0.590882151218   -0.037459936087
 H   -2.821870779252   -1.590576037729    0.132110672478
 H   -3.631514055134   -0.064453831818    0.237440188710
 C   -1.512361196041    1.454293717057    0.004462453456
 H   -2.400884911726    2.085611308301   -0.005019500571
 H    1.776384850628    1.547623152748   -0.004497867292
LI    6.371726329010   -3.764371067183   -0.013535030091
