14

 N    0.802219730466    1.191891694375   -0.001120130195
 C   -0.283227212437    2.014650664203    0.002021741026
 H   -0.091706372555    3.089707636702   -0.000482857516
 C    0.720356009784   -0.227378767351   -0.000102461311
 O    1.764099257102   -0.880620657412   -0.002583302623
 N   -0.553482078897   -0.769518398944    0.010510772819
 C   -1.611168191710    0.031833631931    0.008017727991
 N   -2.843161308166   -0.571965397149   -0.037388095218
 H   -2.852095776487   -1.571659283660    0.132182513347
 H   -3.661739052369   -0.045537077749    0.237512029579
 C   -1.542586193276    1.473210471126    0.004534294325
 H   -2.431109908961    2.104528062370   -0.004947659702
 H    1.746159853393    1.566539906817   -0.004426026423
LI    6.850101562294   -4.063769163748   -0.014672065510
