14

 N    0.761919734152    1.217114033134   -0.001024342370
 C   -0.323527208751    2.039873002962    0.002117528851
 H   -0.132006368869    3.114929975461   -0.000387069691
 C    0.680056013470   -0.202156428592   -0.000006673486
 O    1.723799260788   -0.855398318653   -0.002487514798
 N   -0.593782075211   -0.744296060185    0.010606560644
 C   -1.651468188024    0.057055970690    0.008113515816
 N   -2.883461304480   -0.546743058390   -0.037292307393
 H   -2.892395772801   -1.546436944901    0.132278301172
 H   -3.702039048683   -0.020314738990    0.237607817404
 C   -1.582886189590    1.498432809885    0.004630082150
 H   -2.471409905275    2.129750401129   -0.004851871877
 H    1.705859857079    1.591762245576   -0.004330238598
LI    7.487935206673   -4.462966625834   -0.016188112737
