14

 N    0.756882234613    1.220266825479   -0.001012368892
 C   -0.328564708290    2.043025795307    0.002129502329
 H   -0.137043868408    3.118082767806   -0.000375096213
 C    0.675018513931   -0.199003636247    0.000005299992
 O    1.718761761249   -0.852245526308   -0.002475541320
 N   -0.598819574750   -0.741143267840    0.010618534122
 C   -1.656505687563    0.060208763035    0.008125489294
 N   -2.888498804019   -0.543590266045   -0.037280333915
 H   -2.897433272340   -1.543284152556    0.132290274650
 H   -3.707076548222   -0.017161946645    0.237619790882
 C   -1.587923689129    1.501585602230    0.004642055628
 H   -2.476447404814    2.132903193474   -0.004839898399
 H    1.700822357540    1.594915037921   -0.004318265120
LI    7.567664412220   -4.512866308594   -0.016377618640
