14

 N    0.746807235535    1.226572410169   -0.000988421936
 C   -0.338639707368    2.049331379997    0.002153449285
 H   -0.147118867486    3.124388352496   -0.000351149257
 C    0.664943514853   -0.192698051557    0.000029246948
 O    1.708686762171   -0.845939941618   -0.002451594364
 N   -0.608894573828   -0.734837683150    0.010642481078
 C   -1.666580686641    0.066514347725    0.008149436250
 N   -2.898573803097   -0.537284681355   -0.037256386959
 H   -2.907508271418   -1.536978567866    0.132314221606
 H   -3.717151547300   -0.010856361955    0.237643737838
 C   -1.597998688207    1.507891186920    0.004666002584
 H   -2.486522403892    2.139208778164   -0.004815951443
 H    1.690747358462    1.601220622611   -0.004294318164
LI    7.727122823315   -4.612665674116   -0.016756630447
