14

 N    0.731694736917    1.236030787203   -0.000952501501
 C   -0.353752205986    2.058789757031    0.002189369720
 H   -0.162231366104    3.133846729530   -0.000315228822
 C    0.649831016235   -0.183239674523    0.000065167383
 O    1.693574263553   -0.836481564584   -0.002415673929
 N   -0.624007072446   -0.725379306116    0.010678401513
 C   -1.681693185259    0.075972724759    0.008185356685
 N   -2.913686301715   -0.527826304321   -0.037220466524
 H   -2.922620770036   -1.527520190832    0.132350142041
 H   -3.732264045918   -0.001397984921    0.237679658273
 C   -1.613111186825    1.517349563954    0.004701923019
 H   -2.501634902510    2.148667155198   -0.004780031008
 H    1.675634859844    1.610678999645   -0.004258397729
LI    7.966310439957   -4.762364722398   -0.017325148157
