14

 N    0.721619737839    1.242336371893   -0.000928554545
 C   -0.363827205064    2.065095341721    0.002213316676
 H   -0.172306365182    3.140152314220   -0.000291281866
 C    0.639756017157   -0.176934089833    0.000089114339
 O    1.683499264475   -0.830175979894   -0.002391726973
 N   -0.634082071524   -0.719073721426    0.010702348469
 C   -1.691768184337    0.082278309449    0.008209303641
 N   -2.923761300793   -0.521520719631   -0.037196519568
 H   -2.932695769114   -1.521214606142    0.132374088997
 H   -3.742339044996    0.004907599769    0.237703605229
 C   -1.623186185903    1.523655148644    0.004725869975
 H   -2.511709901588    2.154972739888   -0.004756084052
 H    1.665559860766    1.616984584335   -0.004234450773
LI    8.125768851052   -4.862164087919   -0.017704159963
