14

 N    0.716582238299    1.245489164238   -0.000916581067
 C   -0.368864704604    2.068248134066    0.002225290154
 H   -0.177343864722    3.143305106565   -0.000279308388
 C    0.634718517617   -0.173781297488    0.000101087817
 O    1.678461764935   -0.827023187549   -0.002379753495
 N   -0.639119571064   -0.715920929081    0.010714321947
 C   -1.696805683877    0.085431101794    0.008221277119
 N   -2.928798800333   -0.518367927286   -0.037184546090
 H   -2.937733268654   -1.518061813797    0.132386062475
 H   -3.747376544536    0.008060392114    0.237715578707
 C   -1.628223685443    1.526807940989    0.004737843453
 H   -2.516747401128    2.158125532233   -0.004744110574
 H    1.660522361226    1.620137376680   -0.004222477295
LI    8.205498056599   -4.912063770680   -0.017893665866
