14

 N    0.711544738760    1.248641956583   -0.000904607589
 C   -0.373902204143    2.071400926411    0.002237263632
 H   -0.182381364261    3.146457898910   -0.000267334910
 C    0.629681018078   -0.170628505143    0.000113061295
 O    1.673424265396   -0.823870395204   -0.002367780017
 N   -0.644157070603   -0.712768136736    0.010726295425
 C   -1.701843183416    0.088583894139    0.008233250597
 N   -2.933836299872   -0.515215134941   -0.037172572612
 H   -2.942770768193   -1.514909021452    0.132398035953
 H   -3.752414044075    0.011213184459    0.237727552185
 C   -1.633261184982    1.529960733334    0.004749816931
 H   -2.521784900667    2.161278324578   -0.004732137096
 H    1.655484861687    1.623290169025   -0.004210503817
LI    8.285227262146   -4.961963453441   -0.018083171770
