14

 N    0.701469739682    1.254947541273   -0.000880660632
 C   -0.383977203221    2.077706511101    0.002261210589
 H   -0.192456363339    3.152763483600   -0.000243387953
 C    0.619606019000   -0.164322920453    0.000137008252
 O    1.663349266318   -0.817564810514   -0.002343833060
 N   -0.654232069681   -0.706462552046    0.010750242382
 C   -1.711918182494    0.094889478829    0.008257197554
 N   -2.943911298950   -0.508909550251   -0.037148625655
 H   -2.952845767271   -1.508603436762    0.132421982910
 H   -3.762489043153    0.017518769149    0.237751499142
 C   -1.643336184060    1.536266318024    0.004773763888
 H   -2.531859899745    2.167583909268   -0.004708190139
 H    1.645409862609    1.629595753715   -0.004186556860
LI    8.444685673241   -5.061762818962   -0.018462183576
