14

 N    0.696432240143    1.258100333618   -0.000868687154
 C   -0.389014702760    2.080859303446    0.002273184067
 H   -0.197493862878    3.155916275945   -0.000231414475
 C    0.614568519461   -0.161170128108    0.000148981730
 O    1.658311766779   -0.814412018169   -0.002331859582
 N   -0.659269569220   -0.703309759701    0.010762215860
 C   -1.716955682033    0.098042271174    0.008269171032
 N   -2.948948798489   -0.505756757906   -0.037136652177
 H   -2.957883266810   -1.505450644417    0.132433956388
 H   -3.767526542692    0.020671561494    0.237763472620
 C   -1.648373683599    1.539419110369    0.004785737366
 H   -2.536897399284    2.170736701613   -0.004696216661
 H    1.640372363070    1.632748546060   -0.004174583382
LI    8.524414878789   -5.111662501723   -0.018651689480
