14

 N    0.691394740604    1.261253125963   -0.000856713676
 C   -0.394052202299    2.084012095791    0.002285157545
 H   -0.202531362417    3.159069068289   -0.000219440997
 C    0.609531019922   -0.158017335763    0.000160955208
 O    1.653274267240   -0.811259225825   -0.002319886104
 N   -0.664307068759   -0.700156967356    0.010774189338
 C   -1.721993181572    0.101195063519    0.008281144510
 N   -2.953986298028   -0.502603965561   -0.037124678699
 H   -2.962920766349   -1.502297852072    0.132445929866
 H   -3.772564042231    0.023824353839    0.237775446098
 C   -1.653411183138    1.542571902714    0.004797710844
 H   -2.541934898823    2.173889493957   -0.004684243183
 H    1.635334863531    1.635901338405   -0.004162609904
LI    8.604144084336   -5.161562184484   -0.018841195383
