14

 N    0.671244742447    1.273864295342   -0.000808819764
 C   -0.414202200456    2.096623265170    0.002333051457
 H   -0.222681360574    3.171680237669   -0.000171547085
 C    0.589381021765   -0.145406166384    0.000208849120
 O    1.633124269083   -0.798648056445   -0.002271992192
 N   -0.684457066916   -0.687545797977    0.010822083250
 C   -1.742143179729    0.113806232898    0.008329038422
 N   -2.974136296185   -0.489992796182   -0.037076784787
 H   -2.983070764506   -1.489686682693    0.132493823778
 H   -3.792714040388    0.036435523218    0.237823340010
 C   -1.673561181295    1.555183072093    0.004845604756
 H   -2.562084896980    2.186500663337   -0.004636349271
 H    1.615184865374    1.648512507784   -0.004114715992
LI    8.923060906525   -5.361160915527   -0.019599218996
