14

 N    0.661169743368    1.280169880032   -0.000784872807
 C   -0.424277199535    2.102928849860    0.002356998414
 H   -0.232756359653    3.177985822359   -0.000147600128
 C    0.579306022686   -0.139100581694    0.000232796077
 O    1.623049270004   -0.792342471755   -0.002248045235
 N   -0.694532065995   -0.681240213287    0.010846030207
 C   -1.752218178808    0.120111817588    0.008352985379
 N   -2.984211295264   -0.483687211492   -0.037052837830
 H   -2.993145763585   -1.483381098003    0.132517770735
 H   -3.802789039467    0.042741107908    0.237847286967
 C   -1.683636180374    1.561488656783    0.004869551713
 H   -2.572159896059    2.192806248027   -0.004612402314
 H    1.605109866295    1.654818092474   -0.004090769035
LI    9.082519317620   -5.460960281048   -0.019978230803
