14

 N    0.656132243829    1.283322672377   -0.000772899329
 C   -0.429314699074    2.106081642205    0.002368971892
 H   -0.237793859192    3.181138614704   -0.000135626650
 C    0.574268523147   -0.135947789349    0.000244769555
 O    1.618011770465   -0.789189679410   -0.002236071757
 N   -0.699569565534   -0.678087420942    0.010858003685
 C   -1.757255678347    0.123264609933    0.008364958857
 N   -2.989248794803   -0.480534419147   -0.037040864352
 H   -2.998183263124   -1.480228305658    0.132529744213
 H   -3.807826539006    0.045893900253    0.237859260445
 C   -1.688673679913    1.564641449128    0.004881525191
 H   -2.577197395598    2.195959040372   -0.004600428836
 H    1.600072366756    1.657970884819   -0.004078795557
LI    9.162248523167   -5.510859963809   -0.020167736706
