14

 N    0.635982245672    1.295933841756   -0.000725005417
 C   -0.449464697231    2.118692811584    0.002416865804
 H   -0.257943857349    3.193749784083   -0.000087732738
 C    0.554118524990   -0.123336619970    0.000292663467
 O    1.597861772308   -0.776578510031   -0.002188177845
 N   -0.719719563691   -0.665476251563    0.010905897597
 C   -1.777405676504    0.135875779312    0.008412852769
 N   -3.009398792960   -0.467923249768   -0.036992970440
 H   -3.018333261281   -1.467617136279    0.132577638125
 H   -3.827976537163    0.058505069632    0.237907154357
 C   -1.708823678070    1.577252618507    0.004929419103
 H   -2.597347393755    2.208570209751   -0.004552534924
 H    1.579922368599    1.670582054198   -0.004030901645
LI    9.481165345357   -5.710458694852   -0.020925760319
