14

 N    0.630944746133    1.299086634101   -0.000713031938
 C   -0.454502196770    2.121845603929    0.002428839283
 H   -0.262981356888    3.196902576428   -0.000075759259
 C    0.549081025451   -0.120183827625    0.000304636946
 O    1.592824272769   -0.773425717686   -0.002176204366
 N   -0.724757063230   -0.662323459218    0.010917871076
 C   -1.782443176043    0.139028571657    0.008424826248
 N   -3.014436292499   -0.464770457423   -0.036980996961
 H   -3.023370760820   -1.464464343934    0.132589611604
 H   -3.833014036702    0.061657861977    0.237919127836
 C   -1.713861177609    1.580405410852    0.004941392582
 H   -2.602384893294    2.211723002096   -0.004540561445
 H    1.574884869060    1.673734846543   -0.004018928166
LI    9.560894550904   -5.760358377612   -0.021115266223
