14

 N    0.615832247516    1.308545011136   -0.000677111504
 C   -0.469614695387    2.131303980964    0.002464759717
 H   -0.278093855505    3.206360953463   -0.000039838825
 C    0.533968526834   -0.110725450590    0.000340557380
 O    1.577711774152   -0.763967340651   -0.002140283932
 N   -0.739869561847   -0.652865082183    0.010953791510
 C   -1.797555674660    0.148486948692    0.008460746682
 N   -3.029548791116   -0.455312080388   -0.036945076527
 H   -3.038483259437   -1.455005966899    0.132625532038
 H   -3.848126535319    0.071116239012    0.237955048270
 C   -1.728973676226    1.589863787887    0.004977313016
 H   -2.617497391911    2.221181379131   -0.004504641011
 H    1.559772370443    1.683193223578   -0.003983007732
LI    9.800082167546   -5.910057425894   -0.021683783932
