16

 N   -2.532633020021    0.390053879499   -0.261641548894
 C   -1.300507287754   -0.240236400509   -0.260686588586
 N   -1.030366351628   -1.561121875477   -0.264150777533
 C    0.297762816835   -1.779315768227   -0.248583348870
 H    0.611571099805   -2.825994500717   -0.245203778179
 N    1.310112259876   -0.871334811086   -0.234612078595
 C    0.997895515969    0.439486272163   -0.239258482495
 N    2.005522470771    1.363984909468   -0.281080319426
 H    2.936974008158    1.033454800716   -0.058622385293
 H    1.772784964744    2.323955664507   -0.056270073986
 C   -0.367605324905    0.816180126030   -0.248029570210
 N   -0.991134636096    2.055145826660   -0.238151361192
 C   -2.291060123253    1.747066438299   -0.246606214350
 H   -3.101113652040    2.473647239401   -0.242558076487
 H   -3.436422697191   -0.070203244335   -0.269244604827
 K    1.296865661804   -0.873490216670    0.865306046479
