16

 N   -2.531284841930    0.390273246809   -0.373586178753
 C   -1.299159109663   -0.240017033199   -0.372631218445
 N   -1.029018173537   -1.560902508167   -0.376095407392
 C    0.299110994926   -1.779096400917   -0.360527978729
 H    0.612919277896   -2.825775133407   -0.357148408038
 N    1.311460437967   -0.871115443776   -0.346556708454
 C    0.999243694060    0.439705639473   -0.351203112354
 N    2.006870648862    1.364204276778   -0.393024949285
 H    2.938322186249    1.033674168026   -0.170567015152
 H    1.774133142835    2.324175031817   -0.168214703845
 C   -0.366257146814    0.816399493340   -0.359974200069
 N   -0.989786458005    2.055365193970   -0.350095991051
 C   -2.289711945162    1.747285805609   -0.358550844209
 H   -3.099765473949    2.473866606711   -0.354502706346
 H   -3.435074519100   -0.069983877025   -0.381189234686
 K    1.292192658953   -0.874250579171    1.253324200744
