16

 N   -2.531015206312    0.390317120271   -0.395975104725
 C   -1.298889474045   -0.239973159737   -0.395020144417
 N   -1.028748537919   -1.560858634705   -0.398484333364
 C    0.299380630544   -1.779052527455   -0.382916904701
 H    0.613188913514   -2.825731259945   -0.379537334010
 N    1.311730073585   -0.871071570314   -0.368945634426
 C    0.999513329678    0.439749512935   -0.373592038326
 N    2.007140284480    1.364248150240   -0.415413875257
 H    2.938591821867    1.033718041488   -0.192955941124
 H    1.774402778453    2.324218905279   -0.190603629817
 C   -0.365987511196    0.816443366802   -0.382363126041
 N   -0.989516822387    2.055409067432   -0.372484917023
 C   -2.289442309544    1.747329679071   -0.380939770181
 H   -3.099495838331    2.473910480173   -0.376891632318
 H   -3.434804883482   -0.069940003563   -0.403578160658
 K    1.291258058383   -0.874402651672    1.330927831597
