16

 N   -2.530745570694    0.390360993733   -0.418364030697
 C   -1.298619838427   -0.239929286275   -0.417409070389
 N   -1.028478902301   -1.560814761243   -0.420873259336
 C    0.299650266162   -1.779008653993   -0.405305830673
 H    0.613458549132   -2.825687386483   -0.401926259982
 N    1.311999709203   -0.871027696852   -0.391334560398
 C    0.999782965296    0.439793386397   -0.395980964298
 N    2.007409920098    1.364292023702   -0.437802801229
 H    2.938861457485    1.033761914950   -0.215344867096
 H    1.774672414071    2.324262778741   -0.212992555789
 C   -0.365717875578    0.816487240264   -0.404752052013
 N   -0.989247186769    2.055452940894   -0.394873842995
 C   -2.289172673926    1.747373552533   -0.403328696153
 H   -3.099226202713    2.473954353635   -0.399280558290
 H   -3.434535247864   -0.069896130101   -0.425967086630
 K    1.290323457813   -0.874554724172    1.408531462450
