16

 N   -2.529667028221    0.390536487581   -0.507919734585
 C   -1.297541295954   -0.239753792427   -0.506964774277
 N   -1.027400359828   -1.560639267395   -0.510428963224
 C    0.300728808635   -1.778833160145   -0.494861534561
 H    0.614537091605   -2.825511892635   -0.491481963870
 N    1.313078251676   -0.870852203004   -0.480890264286
 C    1.000861507769    0.439968880245   -0.485536668186
 N    2.008488462571    1.364467517550   -0.527358505117
 H    2.939939999958    1.033937408798   -0.304900570984
 H    1.775750956544    2.324438272589   -0.302548259677
 C   -0.364639333105    0.816662734112   -0.494307755901
 N   -0.988168644296    2.055628434742   -0.484429546883
 C   -2.288094131453    1.747549046381   -0.492884400041
 H   -3.098147660240    2.474129847483   -0.488836262178
 H   -3.433456705391   -0.069720636253   -0.515522790518
 K    1.286585055532   -0.875163014173    1.718945985862
