16

 N   -2.528858121367    0.390668107967   -0.575086512500
 C   -1.296732389100   -0.239622172041   -0.574131552192
 N   -1.026591452974   -1.560507647009   -0.577595741139
 C    0.301537715489   -1.778701539759   -0.562028312476
 H    0.615345998459   -2.825380272249   -0.558648741785
 N    1.313887158530   -0.870720582618   -0.548057042201
 C    1.001670414623    0.440100500631   -0.552703446101
 N    2.009297369425    1.364599137936   -0.594525283032
 H    2.940748906812    1.034069029184   -0.372067348899
 H    1.776559863398    2.324569892975   -0.369715037592
 C   -0.363830426251    0.816794354498   -0.561474533816
 N   -0.987359737442    2.055760055128   -0.551596324798
 C   -2.287285224599    1.747680666767   -0.560051177956
 H   -3.097338753386    2.474261467869   -0.556003040093
 H   -3.432647798537   -0.069589015867   -0.582689568433
 K    1.283781253822   -0.875619231673    1.951756878421
