16

 N   -2.528049214512    0.390799728353   -0.642253290416
 C   -1.295923482245   -0.239490551655   -0.641298330108
 N   -1.025782546119   -1.560376026623   -0.644762519055
 C    0.302346622344   -1.778569919373   -0.629195090392
 H    0.616154905314   -2.825248651863   -0.625815519701
 N    1.314696065385   -0.870588962232   -0.615223820117
 C    1.002479321478    0.440232121017   -0.619870224017
 N    2.010106276280    1.364730758322   -0.661692060948
 H    2.941557813667    1.034200649570   -0.439234126815
 H    1.777368770253    2.324701513361   -0.436881815508
 C   -0.363021519396    0.816925974884   -0.628641311732
 N   -0.986550830587    2.055891675514   -0.618763102714
 C   -2.286476317744    1.747812287153   -0.627217955872
 H   -3.096529846531    2.474393088255   -0.623169818009
 H   -3.431838891682   -0.069457395481   -0.649856346349
 K    1.280977452111   -0.876075449174    2.184567770980
