16

 N   -2.526970672039    0.390975222201   -0.731808994304
 C   -1.294844939772   -0.239315057807   -0.730854033996
 N   -1.024704003646   -1.560200532775   -0.734318222943
 C    0.303425164817   -1.778394425525   -0.718750794280
 H    0.617233447787   -2.825073158015   -0.715371223589
 N    1.315774607858   -0.870413468384   -0.704779524005
 C    1.003557863951    0.440407614865   -0.709425927905
 N    2.011184818753    1.364906252170   -0.751247764836
 H    2.942636356140    1.034376143418   -0.528789830703
 H    1.778447312726    2.324877007209   -0.526437519396
 C   -0.361942976923    0.817101468732   -0.718197015620
 N   -0.985472288114    2.056067169362   -0.708318806602
 C   -2.285397775271    1.747987781001   -0.716773659760
 H   -3.095451304058    2.474568582103   -0.712725521897
 H   -3.430760349209   -0.069281901633   -0.739412050237
 K    1.277239049830   -0.876683739175    2.494982294392
