16

 N   -2.525892129567    0.391150716049   -0.821364698192
 C   -1.293766397300   -0.239139563959   -0.820409737884
 N   -1.023625461174   -1.560025038927   -0.823873926831
 C    0.304503707289   -1.778218931677   -0.808306498168
 H    0.618311990259   -2.824897664167   -0.804926927477
 N    1.316853150330   -0.870237974536   -0.794335227893
 C    1.004636406423    0.440583108713   -0.798981631793
 N    2.012263361225    1.365081746018   -0.840803468724
 H    2.943714898612    1.034551637266   -0.618345534591
 H    1.779525855198    2.325052501057   -0.615993223284
 C   -0.360864434451    0.817276962580   -0.807752719508
 N   -0.984393745642    2.056242663210   -0.797874510490
 C   -2.284319232799    1.748163274849   -0.806329363648
 H   -3.094372761586    2.474744075951   -0.802281225785
 H   -3.429681806737   -0.069106407785   -0.828967754125
 K    1.273500647550   -0.877292029176    2.805396817804
