16

 N   -2.525622493948    0.391194589511   -0.843753624164
 C   -1.293496761681   -0.239095690497   -0.842798663856
 N   -1.023355825555   -1.559981165465   -0.846262852803
 C    0.304773342908   -1.778175058215   -0.830695424140
 H    0.618581625878   -2.824853790705   -0.827315853449
 N    1.317122785949   -0.870194101074   -0.816724153865
 C    1.004906042042    0.440626982175   -0.821370557765
 N    2.012532996844    1.365125619480   -0.863192394696
 H    2.943984534231    1.034595510728   -0.640734460563
 H    1.779795490817    2.325096374519   -0.638382149256
 C   -0.360594798832    0.817320836042   -0.830141645480
 N   -0.984124110023    2.056286536672   -0.820263436462
 C   -2.284049597180    1.748207148311   -0.828718289620
 H   -3.094103125967    2.474787949413   -0.824670151757
 H   -3.429412171118   -0.069062534323   -0.851356680097
 K    1.272566046980   -0.877444101676    2.883000448657
