16

 N   -2.525352858330    0.391238462973   -0.866142550135
 C   -1.293227126063   -0.239051817035   -0.865187589827
 N   -1.023086189937   -1.559937292003   -0.868651778774
 C    0.305042978526   -1.778131184753   -0.853084350111
 H    0.618851261496   -2.824809917243   -0.849704779420
 N    1.317392421567   -0.870150227612   -0.839113079836
 C    1.005175677660    0.440670855637   -0.843759483736
 N    2.012802632462    1.365169492942   -0.885581320667
 H    2.944254169849    1.034639384190   -0.663123386534
 H    1.780065126435    2.325140247981   -0.660771075227
 C   -0.360325163214    0.817364709504   -0.852530571451
 N   -0.983854474405    2.056330410134   -0.842652362433
 C   -2.283779961562    1.748251021773   -0.851107215591
 H   -3.093833490349    2.474831822875   -0.847059077728
 H   -3.429142535500   -0.069018660861   -0.873745606068
 K    1.271631446409   -0.877596174176    2.960604079510
