16

 N   -2.525083222712    0.391282336435   -0.888531476107
 C   -1.292957490445   -0.239007943573   -0.887576515799
 N   -1.022816554319   -1.559893418541   -0.891040704746
 C    0.305312614144   -1.778087311291   -0.875473276083
 H    0.619120897114   -2.824766043781   -0.872093705392
 N    1.317662057185   -0.870106354150   -0.861502005808
 C    1.005445313278    0.440714729099   -0.866148409708
 N    2.013072268080    1.365213366404   -0.907970246639
 H    2.944523805467    1.034683257652   -0.685512312506
 H    1.780334762053    2.325184121443   -0.683160001199
 C   -0.360055527596    0.817408582966   -0.874919497423
 N   -0.983584838787    2.056374283596   -0.865041288405
 C   -2.283510325944    1.748294895235   -0.873496141563
 H   -3.093563854731    2.474875696337   -0.869448003700
 H   -3.428872899882   -0.068974787399   -0.896134532040
 K    1.270696845839   -0.877748246676    3.038207710363
