16

 N   -2.523465409003    0.391545577207   -1.022865031939
 C   -1.291339676736   -0.238744702801   -1.021910071631
 N   -1.021198740610   -1.559630177769   -1.025374260578
 C    0.306930427853   -1.777824070519   -1.009806831915
 H    0.620738710823   -2.824502803009   -1.006427261224
 N    1.319279870894   -0.869843113378   -0.995835561640
 C    1.007063126987    0.440977969871   -1.000481965540
 N    2.014690081789    1.365476607176   -1.042303802471
 H    2.946141619176    1.034946498424   -0.819845868338
 H    1.781952575762    2.325447362215   -0.817493557031
 C   -0.358437713887    0.817671823738   -1.009253053255
 N   -0.981967025078    2.056637524368   -0.999374844237
 C   -2.281892512235    1.748558136007   -1.007829697395
 H   -3.091946041022    2.475138937109   -1.003781559532
 H   -3.427255086173   -0.068711546627   -1.030468087872
 K    1.265089242418   -0.878660681678    3.503829495481
