16

 N   -2.522926137767    0.391633324131   -1.067642883883
 C   -1.290800405500   -0.238656955877   -1.066687923575
 N   -1.020659469374   -1.559542430845   -1.070152112522
 C    0.307469699089   -1.777736323595   -1.054584683859
 H    0.621277982059   -2.824415056085   -1.051205113168
 N    1.319819142130   -0.869755366454   -1.040613413584
 C    1.007602398223    0.441065716795   -1.045259817484
 N    2.015229353025    1.365564354100   -1.087081654415
 H    2.946680890412    1.035034245348   -0.864623720282
 H    1.782491846998    2.325535109139   -0.862271408975
 C   -0.357898442651    0.817759570662   -1.054030905199
 N   -0.981427753842    2.056725271292   -1.044152696181
 C   -2.281353240999    1.748645882931   -1.052607549339
 H   -3.091406769786    2.475226684033   -1.048559411476
 H   -3.426715814937   -0.068623799703   -1.075245939816
 K    1.263220041278   -0.878964826678    3.659036757187
