16

 N   -2.522656502148    0.391677197593   -1.090031809855
 C   -1.290530769881   -0.238613082415   -1.089076849547
 N   -1.020389833755   -1.559498557383   -1.092541038494
 C    0.307739334708   -1.777692450133   -1.076973609831
 H    0.621547617678   -2.824371182623   -1.073594039140
 N    1.320088777749   -0.869711492992   -1.063002339556
 C    1.007872033842    0.441109590257   -1.067648743456
 N    2.015498988644    1.365608227562   -1.109470580387
 H    2.946950526031    1.035078118810   -0.887012646254
 H    1.782761482617    2.325578982601   -0.884660334947
 C   -0.357628807032    0.817803444124   -1.076419831171
 N   -0.981158118223    2.056769144754   -1.066541622153
 C   -2.281083605380    1.748689756393   -1.074996475311
 H   -3.091137134167    2.475270557495   -1.070948337448
 H   -3.426446179318   -0.068579926241   -1.097634865788
 K    1.262285440708   -0.879116899178    3.736640388040
