16

 N   -2.522386866530    0.391721071055   -1.112420735827
 C   -1.290261134263   -0.238569208953   -1.111465775519
 N   -1.020120198137   -1.559454683921   -1.114929964466
 C    0.308008970326   -1.777648576671   -1.099362535803
 H    0.621817253296   -2.824327309161   -1.095982965112
 N    1.320358413367   -0.869667619530   -1.085391265528
 C    1.008141669460    0.441153463719   -1.090037669428
 N    2.015768624262    1.365652101024   -1.131859506359
 H    2.947220161649    1.035121992272   -0.909401572226
 H    1.783031118235    2.325622856063   -0.907049260919
 C   -0.357359171414    0.817847317586   -1.098808757143
 N   -0.980888482605    2.056813018216   -1.088930548125
 C   -2.280813969762    1.748733629855   -1.097385401283
 H   -3.090867498549    2.475314430957   -1.093337263420
 H   -3.426176543700   -0.068536052779   -1.120023791760
 K    1.261350840138   -0.879268971678    3.814244018893
