16

 N   -2.521847595294    0.391808817979   -1.157198587771
 C   -1.289721863027   -0.238481462029   -1.156243627463
 N   -1.019580926901   -1.559366936997   -1.159707816410
 C    0.308548241562   -1.777560829747   -1.144140387747
 H    0.622356524532   -2.824239562237   -1.140760817056
 N    1.320897684603   -0.869579872606   -1.130169117472
 C    1.008680940696    0.441241210643   -1.134815521372
 N    2.016307895498    1.365739847948   -1.176637358303
 H    2.947759432885    1.035209739196   -0.954179424170
 H    1.783570389471    2.325710602987   -0.951827112863
 C   -0.356819900178    0.817935064510   -1.143586609087
 N   -0.980349211369    2.056900765140   -1.133708400069
 C   -2.280274698526    1.748821376779   -1.142163253227
 H   -3.090328227313    2.475402177881   -1.138115115364
 H   -3.425637272464   -0.068448305855   -1.164801643704
 K    1.259481638997   -0.879573116679    3.969451280599
