16

 N   -2.521577959676    0.391852691441   -1.179587513742
 C   -1.289452227409   -0.238437588567   -1.178632553434
 N   -1.019311291283   -1.559323063535   -1.182096742381
 C    0.308817877180   -1.777516956285   -1.166529313718
 H    0.622626160150   -2.824195688775   -1.163149743027
 N    1.321167320221   -0.869535999144   -1.152558043443
 C    1.008950576314    0.441285084105   -1.157204447343
 N    2.016577531116    1.365783721410   -1.199026284274
 H    2.948029068503    1.035253612658   -0.976568350141
 H    1.783840025089    2.325754476449   -0.974216038834
 C   -0.356550264560    0.817978937972   -1.165975535058
 N   -0.980079575751    2.056944638602   -1.156097326040
 C   -2.280005062908    1.748865250241   -1.164552179198
 H   -3.090058591695    2.475446051343   -1.160504041335
 H   -3.425367636846   -0.068404432393   -1.187190569675
 K    1.258547038427   -0.879725189179    4.047054911452
