16

 N   -2.521038688439    0.391940438365   -1.224365365686
 C   -1.288912956172   -0.238349841643   -1.223410405378
 N   -1.018772020046   -1.559235316611   -1.226874594325
 C    0.309357148417   -1.777429209361   -1.211307165662
 H    0.623165431387   -2.824107941851   -1.207927594971
 N    1.321706591458   -0.869448252220   -1.197335895387
 C    1.009489847551    0.441372831029   -1.201982299287
 N    2.017116802353    1.365871468334   -1.243804136218
 H    2.948568339740    1.035341359582   -1.021346202085
 H    1.784379296326    2.325842223373   -1.018993890778
 C   -0.356010993323    0.818066684896   -1.210753387002
 N   -0.979540304514    2.057032385526   -1.200875177984
 C   -2.279465791671    1.748952997165   -1.209330031142
 H   -3.089519320458    2.475533798267   -1.205281893279
 H   -3.424828365609   -0.068316685469   -1.231968421619
 K    1.256677837287   -0.880029334179    4.202262173158
