16

 N   -2.520769052821    0.391984311827   -1.246754291658
 C   -1.288643320554   -0.238305968181   -1.245799331350
 N   -1.018502384428   -1.559191443149   -1.249263520297
 C    0.309626784035   -1.777385335899   -1.233696091634
 H    0.623435067005   -2.824064068389   -1.230316520943
 N    1.321976227076   -0.869404378758   -1.219724821359
 C    1.009759483169    0.441416704491   -1.224371225259
 N    2.017386437971    1.365915341796   -1.266193062190
 H    2.948837975358    1.035385233044   -1.043735128057
 H    1.784648931944    2.325886096835   -1.041382816750
 C   -0.355741357705    0.818110558358   -1.233142312974
 N   -0.979270668896    2.057076258988   -1.223264103956
 C   -2.279196156053    1.748996870627   -1.231718957114
 H   -3.089249684840    2.475577671729   -1.227670819251
 H   -3.424558729991   -0.068272812007   -1.254357347591
 K    1.255743236717   -0.880181406680    4.279865804011
