16

 N   -2.520499417203    0.392028185289   -1.269143217630
 C   -1.288373684936   -0.238262094719   -1.268188257322
 N   -1.018232748810   -1.559147569687   -1.271652446269
 C    0.309896419653   -1.777341462437   -1.256085017606
 H    0.623704702623   -2.824020194927   -1.252705446915
 N    1.322245862694   -0.869360505296   -1.242113747331
 C    1.010029118787    0.441460577953   -1.246760151231
 N    2.017656073589    1.365959215258   -1.288581988162
 H    2.949107610976    1.035429106506   -1.066124054029
 H    1.784918567562    2.325929970297   -1.063771742722
 C   -0.355471722087    0.818154431820   -1.255531238946
 N   -0.979001033278    2.057120132450   -1.245653029928
 C   -2.278926520435    1.749040744089   -1.254107883086
 H   -3.088980049222    2.475621545191   -1.250059745223
 H   -3.424289094373   -0.068228938545   -1.276746273563
 K    1.254808636146   -0.880333479180    4.357469434864
