16

 N   -2.520229781585    0.392072058751   -1.291532143602
 C   -1.288104049318   -0.238218221257   -1.290577183294
 N   -1.017963113192   -1.559103696225   -1.294041372241
 C    0.310166055271   -1.777297588975   -1.278473943578
 H    0.623974338241   -2.823976321465   -1.275094372887
 N    1.322515498312   -0.869316631834   -1.264502673303
 C    1.010298754405    0.441504451415   -1.269149077203
 N    2.017925709207    1.366003088720   -1.310970914134
 H    2.949377246594    1.035472979968   -1.088512980001
 H    1.785188203180    2.325973843759   -1.086160668694
 C   -0.355202086469    0.818198305282   -1.277920164918
 N   -0.978731397660    2.057164005912   -1.268041955900
 C   -2.278656884817    1.749084617551   -1.276496809058
 H   -3.088710413604    2.475665418653   -1.272448671195
 H   -3.424019458755   -0.068185065083   -1.299135199535
 K    1.253874035576   -0.880485551680    4.435073065717
