16

 N   -2.519420874730    0.392203679137   -1.358698921518
 C   -1.287295142463   -0.238086600871   -1.357743961210
 N   -1.017154206337   -1.558972075839   -1.361208150157
 C    0.310974962126   -1.777165968589   -1.345640721494
 H    0.624783245096   -2.823844701079   -1.342261150803
 N    1.323324405167   -0.869185011448   -1.331669451219
 C    1.011107661260    0.441636071801   -1.336315855119
 N    2.018734616062    1.366134709106   -1.378137692050
 H    2.950186153449    1.035604600354   -1.155679757917
 H    1.785997110035    2.326105464145   -1.153327446610
 C   -0.354393179614    0.818329925668   -1.345086942834
 N   -0.977922490805    2.057295626298   -1.335208733816
 C   -2.277847977962    1.749216237937   -1.343663586974
 H   -3.087901506749    2.475797039039   -1.339615449111
 H   -3.423210551900   -0.068053444697   -1.366301977451
 K    1.251070233866   -0.880941769181    4.667883958276
