16

 N   -2.519151239112    0.392247552599   -1.381087847490
 C   -1.287025506845   -0.238042727409   -1.380132887182
 N   -1.016884570719   -1.558928202377   -1.383597076129
 C    0.311244597744   -1.777122095127   -1.368029647466
 H    0.625052880714   -2.823800827617   -1.364650076775
 N    1.323594040785   -0.869141137986   -1.354058377191
 C    1.011377296878    0.441679945263   -1.358704781091
 N    2.019004251680    1.366178582568   -1.400526618022
 H    2.950455789067    1.035648473816   -1.178068683889
 H    1.786266745653    2.326149337607   -1.175716372582
 C   -0.354123543996    0.818373799130   -1.367475868806
 N   -0.977652855187    2.057339499760   -1.357597659788
 C   -2.277578342344    1.749260111399   -1.366052512946
 H   -3.087631871131    2.475840912501   -1.362004375083
 H   -3.422940916282   -0.068009571235   -1.388690903423
 K    1.250135633296   -0.881093841681    4.745487589129
