16

 N   -2.518881603494    0.392291426061   -1.403476773462
 C   -1.286755871227   -0.237998853947   -1.402521813154
 N   -1.016614935101   -1.558884328915   -1.405986002101
 C    0.311514233362   -1.777078221665   -1.390418573438
 H    0.625322516332   -2.823756954155   -1.387039002747
 N    1.323863676403   -0.869097264524   -1.376447303163
 C    1.011646932496    0.441723818725   -1.381093707063
 N    2.019273887298    1.366222456030   -1.422915543994
 H    2.950725424685    1.035692347278   -1.200457609861
 H    1.786536381271    2.326193211069   -1.198105298554
 C   -0.353853908378    0.818417672592   -1.389864794778
 N   -0.977383219569    2.057383373222   -1.379986585760
 C   -2.277308706726    1.749303984861   -1.388441438918
 H   -3.087362235513    2.475884785963   -1.384393301055
 H   -3.422671280664   -0.067965697773   -1.411079829395
 K    1.249201032725   -0.881245914181    4.823091219982
