16

 N   -2.518611967876    0.392335299523   -1.425865699434
 C   -1.286486235609   -0.237954980485   -1.424910739126
 N   -1.016345299483   -1.558840455453   -1.428374928073
 C    0.311783868980   -1.777034348203   -1.412807499410
 H    0.625592151950   -2.823713080693   -1.409427928719
 N    1.324133312021   -0.869053391062   -1.398836229135
 C    1.011916568114    0.441767692187   -1.403482633035
 N    2.019543522916    1.366266329492   -1.445304469966
 H    2.950995060303    1.035736220740   -1.222846535833
 H    1.786806016889    2.326237084531   -1.220494224526
 C   -0.353584272760    0.818461546054   -1.412253720750
 N   -0.977113583951    2.057427246684   -1.402375511732
 C   -2.277039071108    1.749347858323   -1.410830364890
 H   -3.087092599895    2.475928659425   -1.406782227027
 H   -3.422401645046   -0.067921824311   -1.433468755367
 K    1.248266432155   -0.881397986681    4.900694850835
