16

 N   -2.517533425403    0.392510793371   -1.515421403321
 C   -1.285407693136   -0.237779486637   -1.514466443013
 N   -1.015266757010   -1.558664961605   -1.517930631960
 C    0.312862411453   -1.776858854355   -1.502363203297
 H    0.626670694423   -2.823537586845   -1.498983632606
 N    1.325211854494   -0.868877897214   -1.488391933022
 C    1.012995110587    0.441943186035   -1.493038336922
 N    2.020622065389    1.366441823340   -1.534860173853
 H    2.952073602776    1.035911714588   -1.312402239720
 H    1.787884559362    2.326412578379   -1.310049928413
 C   -0.352505730287    0.818637039902   -1.501809424637
 N   -0.976035041478    2.057602740532   -1.491931215619
 C   -2.275960528635    1.749523352171   -1.500386068777
 H   -3.086014057422    2.476104153273   -1.496337930914
 H   -3.421323102573   -0.067746330463   -1.523024459254
 K    1.244528029875   -0.882006276682    5.211109374247
