16

 N   -2.516994154166    0.392598540295   -1.560199255265
 C   -1.284868421899   -0.237691739713   -1.559244294957
 N   -1.014727485773   -1.558577214681   -1.562708483904
 C    0.313401682690   -1.776771107431   -1.547141055241
 H    0.627209965660   -2.823449839921   -1.543761484550
 N    1.325751125731   -0.868790150290   -1.533169784966
 C    1.013534381824    0.442030932959   -1.537816188866
 N    2.021161336626    1.366529570264   -1.579638025797
 H    2.952612874013    1.035999461512   -1.357180091664
 H    1.788423830599    2.326500325303   -1.354827780357
 C   -0.351966459050    0.818724786826   -1.546587276581
 N   -0.975495770241    2.057690487456   -1.536709067563
 C   -2.275421257398    1.749611099095   -1.545163920721
 H   -3.085474786185    2.476191900197   -1.541115782858
 H   -3.420783831336   -0.067658583539   -1.567802311198
 K    1.242658828734   -0.882310421683    5.366316635953
