16

 N   -2.516454882930    0.392686287219   -1.604977107209
 C   -1.284329150663   -0.237603992789   -1.604022146901
 N   -1.014188214537   -1.558489467757   -1.607486335848
 C    0.313940953926   -1.776683360507   -1.591918907185
 H    0.627749236896   -2.823362092997   -1.588539336494
 N    1.326290396967   -0.868702403366   -1.577947636910
 C    1.014073653060    0.442118679883   -1.582594040810
 N    2.021700607862    1.366617317188   -1.624415877741
 H    2.953152145249    1.036087208436   -1.401957943608
 H    1.788963101835    2.326588072227   -1.399605632301
 C   -0.351427187814    0.818812533750   -1.591365128525
 N   -0.974956499005    2.057778234380   -1.581486919507
 C   -2.274881986162    1.749698846019   -1.589941772665
 H   -3.084935514949    2.476279647121   -1.585893634802
 H   -3.420244560100   -0.067570836615   -1.612580163142
 K    1.240789627594   -0.882614566683    5.521523897659
