16

 N   -2.515645976075    0.392817907605   -1.672143885125
 C   -1.283520243808   -0.237472372403   -1.671188924817
 N   -1.013379307682   -1.558357847371   -1.674653113764
 C    0.314749860781   -1.776551740121   -1.659085685101
 H    0.628558143751   -2.823230472611   -1.655706114410
 N    1.327099303822   -0.868570782980   -1.645114414826
 C    1.014882559915    0.442250300269   -1.649760818726
 N    2.022509514717    1.366748937574   -1.691582655657
 H    2.953961052104    1.036218828822   -1.469124721524
 H    1.789772008690    2.326719692613   -1.466772410217
 C   -0.350618280959    0.818944154136   -1.658531906441
 N   -0.974147592150    2.057909854766   -1.648653697423
 C   -2.274073079307    1.749830466405   -1.657108550581
 H   -3.084126608094    2.476411267507   -1.653060412718
 H   -3.419435653245   -0.067439216229   -1.679746941058
 K    1.237985825884   -0.883070784184    5.754334790217
