16

 N   -2.515376340457    0.392861781067   -1.694532811097
 C   -1.283250608190   -0.237428498941   -1.693577850789
 N   -1.013109672064   -1.558313973909   -1.697042039736
 C    0.315019496399   -1.776507866659   -1.681474611073
 H    0.628827779369   -2.823186599149   -1.678095040382
 N    1.327368939440   -0.868526909518   -1.667503340798
 C    1.015152195533    0.442294173731   -1.672149744698
 N    2.022779150335    1.366792811036   -1.713971581629
 H    2.954230687722    1.036262702284   -1.491513647496
 H    1.790041644308    2.326763566075   -1.489161336189
 C   -0.350348645341    0.818988027598   -1.680920832413
 N   -0.973877956532    2.057953728228   -1.671042623395
 C   -2.273803443689    1.749874339867   -1.679497476553
 H   -3.083856972476    2.476455140969   -1.675449338690
 H   -3.419166017627   -0.067395342767   -1.702135867030
 K    1.237051225313   -0.883222856684    5.831938421070
