16

 N   -2.514297797985    0.393037274915   -1.784088514984
 C   -1.282172065718   -0.237253005093   -1.783133554676
 N   -1.012031129592   -1.558138480061   -1.786597743623
 C    0.316098038871   -1.776332372811   -1.771030314960
 H    0.629906321841   -2.823011105301   -1.767650744269
 N    1.328447481912   -0.868351415670   -1.757059044685
 C    1.016230738005    0.442469667579   -1.761705448585
 N    2.023857692807    1.366968304884   -1.803527285516
 H    2.955309230194    1.036438196132   -1.581069351383
 H    1.791120186780    2.326939059923   -1.578717040076
 C   -0.349270102869    0.819163521446   -1.770476536300
 N   -0.972799414060    2.058129222076   -1.760598327282
 C   -2.272724901217    1.750049833715   -1.769053180440
 H   -3.082778430004    2.476630634817   -1.765005042577
 H   -3.418087475155   -0.067219848919   -1.791691570917
 K    1.233312823033   -0.883831146685    6.142352944482
