16

 N   -2.512949619894    0.393256642225   -1.896033144844
 C   -1.280823887627   -0.237033637783   -1.895078184536
 N   -1.010682951501   -1.557919112751   -1.898542373483
 C    0.317446216962   -1.776113005501   -1.882974944820
 H    0.631254499932   -2.822791737991   -1.879595374129
 N    1.329795660003   -0.868132048360   -1.869003674545
 C    1.017578916096    0.442689034889   -1.873650078445
 N    2.025205870898    1.367187672194   -1.915471915376
 H    2.956657408285    1.036657563442   -1.693013981243
 H    1.792468364871    2.327158427233   -1.690661669936
 C   -0.347921924778    0.819382888756   -1.882421166160
 N   -0.971451235969    2.058348589386   -1.872542957142
 C   -2.271376723126    1.750269201025   -1.880997810300
 H   -3.081430251913    2.476850002127   -1.876949672437
 H   -3.416739297064   -0.067000481609   -1.903636200777
 K    1.228639820182   -0.884591509186    6.530371098747
