16

 N   -2.512410348657    0.393344389149   -1.940810996788
 C   -1.280284616390   -0.236945890859   -1.939856036480
 N   -1.010143680264   -1.557831365827   -1.943320225427
 C    0.317985488199   -1.776025258577   -1.927752796764
 H    0.631793771169   -2.822703991067   -1.924373226073
 N    1.330334931240   -0.868044301436   -1.913781526489
 C    1.018118187333    0.442776781813   -1.918427930389
 N    2.025745142135    1.367275419118   -1.960249767320
 H    2.957196679522    1.036745310366   -1.737791833187
 H    1.793007636108    2.327246174157   -1.735439521880
 C   -0.347382653541    0.819470635680   -1.927199018104
 N   -0.970911964732    2.058436336310   -1.917320809086
 C   -2.270837451889    1.750356947949   -1.925775662244
 H   -3.080890980676    2.476937749051   -1.921727524381
 H   -3.416200025827   -0.066912734685   -1.948414052721
 K    1.226770619042   -0.884895654186    6.685578360453
