16

 N   -2.512140713039    0.393388262611   -1.963199922760
 C   -1.280014980772   -0.236902017397   -1.962244962452
 N   -1.009874044646   -1.557787492365   -1.965709151399
 C    0.318255123817   -1.775981385115   -1.950141722736
 H    0.632063406787   -2.822660117605   -1.946762152045
 N    1.330604566858   -0.868000427974   -1.936170452461
 C    1.018387822951    0.442820655275   -1.940816856361
 N    2.026014777753    1.367319292580   -1.982638693292
 H    2.957466315140    1.036789183828   -1.760180759159
 H    1.793277271726    2.327290047619   -1.757828447852
 C   -0.347113017923    0.819514509142   -1.949587944076
 N   -0.970642329114    2.058480209772   -1.939709735058
 C   -2.270567816271    1.750400821411   -1.948164588216
 H   -3.080621345058    2.476981622513   -1.944116450353
 H   -3.415930390209   -0.066868861223   -1.970802978693
 K    1.225836018471   -0.885047726686    6.763181991306
