16

 N   -2.511331806184    0.393519882997   -2.030366700676
 C   -1.279206073917   -0.236770397011   -2.029411740368
 N   -1.009065137791   -1.557655871979   -2.032875929315
 C    0.319064030672   -1.775849764729   -2.017308500652
 H    0.632872313642   -2.822528497219   -2.013928929961
 N    1.331413473713   -0.867868807588   -2.003337230377
 C    1.019196729806    0.442952275661   -2.007983634277
 N    2.026823684608    1.367450912966   -2.049805471208
 H    2.958275221995    1.036920804214   -1.827347537075
 H    1.794086178581    2.327421668005   -1.824995225768
 C   -0.346304111068    0.819646129528   -2.016754721992
 N   -0.969833422259    2.058611830158   -2.006876512974
 C   -2.269758909416    1.750532441797   -2.015331366132
 H   -3.079812438203    2.477113242899   -2.011283228269
 H   -3.415121483354   -0.066737240837   -2.037969756609
 K    1.223032216761   -0.885503944187    6.995992883865
