16

 N   -2.510522899330    0.393651503383   -2.097533478591
 C   -1.278397167063   -0.236638776625   -2.096578518283
 N   -1.008256230937   -1.557524251593   -2.100042707230
 C    0.319872937526   -1.775718144343   -2.084475278567
 H    0.633681220496   -2.822396876833   -2.081095707876
 N    1.332222380567   -0.867737187202   -2.070504008292
 C    1.020005636660    0.443083896047   -2.075150412192
 N    2.027632591462    1.367582533352   -2.116972249123
 H    2.959084128849    1.037052424600   -1.894514314990
 H    1.794895085435    2.327553288391   -1.892162003683
 C   -0.345495204214    0.819777749914   -2.083921499907
 N   -0.969024515405    2.058743450544   -2.074043290889
 C   -2.268950002562    1.750664062183   -2.082498144047
 H   -3.079003531349    2.477244863285   -2.078450006184
 H   -3.414312576500   -0.066605620451   -2.105136534524
 K    1.220228415050   -0.885960161688    7.228803776424
