16

 N   -2.509983628094    0.393739250307   -2.142311330535
 C   -1.277857895827   -0.236551029701   -2.141356370227
 N   -1.007716959701   -1.557436504669   -2.144820559174
 C    0.320412208762   -1.775630397419   -2.129253130511
 H    0.634220491732   -2.822309129909   -2.125873559820
 N    1.332761651803   -0.867649440278   -2.115281860236
 C    1.020544907896    0.443171642971   -2.119928264136
 N    2.028171862698    1.367670280276   -2.161750101067
 H    2.959623400085    1.037140171524   -1.939292166934
 H    1.795434356671    2.327641035315   -1.936939855627
 C   -0.344955932978    0.819865496838   -2.128699351851
 N   -0.968485244169    2.058831197468   -2.118821142833
 C   -2.268410731326    1.750751809107   -2.127275995991
 H   -3.078464260113    2.477332610209   -2.123227858128
 H   -3.413773305264   -0.066517873527   -2.149914386468
 K    1.218359213910   -0.886264306688    7.384011038130
