16

 N   -2.509444356857    0.393826997231   -2.187089182479
 C   -1.277318624590   -0.236463282777   -2.186134222171
 N   -1.007177688464   -1.557348757745   -2.189598411118
 C    0.320951479999   -1.775542650495   -2.174030982455
 H    0.634759762969   -2.822221382985   -2.170651411764
 N    1.333300923040   -0.867561693354   -2.160059712180
 C    1.021084179133    0.443259389895   -2.164706116080
 N    2.028711133935    1.367758027200   -2.206527953011
 H    2.960162671322    1.037227918448   -1.984070018878
 H    1.795973627908    2.327728782239   -1.981717707571
 C   -0.344416661741    0.819953243762   -2.173477203795
 N   -0.967945972932    2.058918944392   -2.163598994777
 C   -2.267871460089    1.750839556031   -2.172053847935
 H   -3.077924988876    2.477420357133   -2.168005710072
 H   -3.413234034027   -0.066430126603   -2.194692238412
 K    1.216490012770   -0.886568451689    7.539218299836
