16

 N   -2.509174721239    0.393870870694   -2.209478108451
 C   -1.277048988972   -0.236419409314   -2.208523148143
 N   -1.006908052846   -1.557304884282   -2.211987337090
 C    0.321221115617   -1.775498777032   -2.196419908427
 H    0.635029398587   -2.822177509522   -2.193040337736
 N    1.333570558658   -0.867517819891   -2.182448638152
 C    1.021353814751    0.443303263358   -2.187095042052
 N    2.028980769553    1.367801900663   -2.228916878983
 H    2.960432306940    1.037271791911   -2.006458944850
 H    1.796243263526    2.327772655702   -2.004106633543
 C   -0.344147026123    0.819997117225   -2.195866129767
 N   -0.967676337314    2.058962817855   -2.185987920749
 C   -2.267601824471    1.750883429494   -2.194442773907
 H   -3.077655353258    2.477464230596   -2.190394636044
 H   -3.412964398409   -0.066386253140   -2.217081164384
 K    1.215555412200   -0.886720524189    7.616821930689
