14

 C   -0.436667412339   -3.204135763714    0.000000000000
 H   -0.428945412339   -4.297310763714    0.000000000000
 C    0.773808587661   -2.484296763714    0.000000000000
 H    1.728827587661   -3.017995763714    0.000000000000
 C   -1.656491412339   -2.504129763714    0.000000000000
 H   -2.604623412339   -3.049941763714    0.000000000000
 C    0.771400587661   -1.079151763714    0.000000000000
 H    1.702754587661   -0.506612763714    0.000000000000
 C   -1.670342412339   -1.096648763714    0.000000000000
 H   -2.622341412339   -0.553927763714    0.000000000000
 C   -0.454065412339   -0.388866763714    0.000000000000
 O   -0.393518412339    0.991594236286    0.000000000000
 H   -1.296649412339    1.340021236286    0.000000000000
RB    0.493584135496    1.453166624568    0.000000000000
