14

 C   -0.562943903099   -3.269839262781    0.000000000000
 H   -0.555221903099   -4.363014262781    0.000000000000
 C    0.647532096901   -2.550000262781    0.000000000000
 H    1.602551096901   -3.083699262781    0.000000000000
 C   -1.782767903099   -2.569833262781    0.000000000000
 H   -2.730899903099   -3.115645262781    0.000000000000
 C    0.645124096901   -1.144855262781    0.000000000000
 H    1.576478096901   -0.572316262781    0.000000000000
 C   -1.796618903099   -1.162352262781    0.000000000000
 H   -2.748617903099   -0.619631262781    0.000000000000
 C   -0.580341903099   -0.454570262781    0.000000000000
 O   -0.519794903099    0.925890737219    0.000000000000
 H   -1.422925903099    1.274317737219    0.000000000000
RB    0.633438409087    1.525934841986    0.000000000000
