14

 C   -0.647128230272   -3.313641595492    0.000000000000
 H   -0.639406230272   -4.406816595492    0.000000000000
 C    0.563347769728   -2.593802595492    0.000000000000
 H    1.518366769728   -3.127501595492    0.000000000000
 C   -1.866952230272   -2.613635595492    0.000000000000
 H   -2.815084230272   -3.159447595492    0.000000000000
 C    0.560939769728   -1.188657595492    0.000000000000
 H    1.492293769728   -0.616118595492    0.000000000000
 C   -1.880803230272   -1.206154595492    0.000000000000
 H   -2.832802230272   -0.663433595492    0.000000000000
 C   -0.664526230272   -0.498372595492    0.000000000000
 O   -0.603979230272    0.882088404508    0.000000000000
 H   -1.507110230272    1.230515404508    0.000000000000
RB    0.726674591481    1.574446986931    0.000000000000
