14

 C   -0.689220393858   -3.335542761848    0.000000000000
 H   -0.681498393858   -4.428717761848    0.000000000000
 C    0.521255606142   -2.615703761848    0.000000000000
 H    1.476274606142   -3.149402761848    0.000000000000
 C   -1.909044393858   -2.635536761848    0.000000000000
 H   -2.857176393858   -3.181348761848    0.000000000000
 C    0.518847606142   -1.210558761848    0.000000000000
 H    1.450201606142   -0.638019761848    0.000000000000
 C   -1.922895393858   -1.228055761848    0.000000000000
 H   -2.874894393858   -0.685334761848    0.000000000000
 C   -0.706618393858   -0.520273761848    0.000000000000
 O   -0.646071393858    0.860187238152    0.000000000000
 H   -1.549202393858    1.208614238152    0.000000000000
RB    0.773292682678    1.598703059403    0.000000000000
