14

 C   -0.857589048205   -3.423147427270    0.000000000000
 H   -0.849867048205   -4.516322427270    0.000000000000
 C    0.352886951795   -2.703308427270    0.000000000000
 H    1.307905951795   -3.237007427270    0.000000000000
 C   -2.077413048205   -2.723141427270    0.000000000000
 H   -3.025545048205   -3.268953427270    0.000000000000
 C    0.350478951795   -1.298163427270    0.000000000000
 H    1.281832951795   -0.725624427270    0.000000000000
 C   -2.091264048205   -1.315660427270    0.000000000000
 H   -3.043263048205   -0.772939427270    0.000000000000
 C   -0.874987048205   -0.607878427270    0.000000000000
 O   -0.814440048205    0.772582572730    0.000000000000
 H   -1.717571048205    1.121009572730    0.000000000000
RB    0.959765047466    1.695727349294    0.000000000000
