14

 C   -1.110142029724   -3.554554425404    0.000000000000
 H   -1.102420029724   -4.647729425404    0.000000000000
 C    0.100333970276   -2.834715425404    0.000000000000
 H    1.055352970276   -3.368414425404    0.000000000000
 C   -2.329966029724   -2.854548425404    0.000000000000
 H   -3.278098029724   -3.400360425404    0.000000000000
 C    0.097925970276   -1.429570425404    0.000000000000
 H    1.029279970276   -0.857031425404    0.000000000000
 C   -2.343817029724   -1.447067425404    0.000000000000
 H   -3.295816029724   -0.904346425404    0.000000000000
 C   -1.127540029724   -0.739285425404    0.000000000000
 O   -1.066993029724    0.641175574596    0.000000000000
 H   -1.970124029724    0.989602574596    0.000000000000
RB    1.239473594647    1.841263784129    0.000000000000
