14

 C   -1.152234193311   -3.576455591759    0.000000000000
 H   -1.144512193311   -4.669630591759    0.000000000000
 C    0.058241806689   -2.856616591759    0.000000000000
 H    1.013260806689   -3.390315591759    0.000000000000
 C   -2.372058193311   -2.876449591759    0.000000000000
 H   -3.320190193311   -3.422261591759    0.000000000000
 C    0.055833806689   -1.451471591759    0.000000000000
 H    0.987187806689   -0.878932591759    0.000000000000
 C   -2.385909193311   -1.468968591759    0.000000000000
 H   -3.337908193311   -0.926247591759    0.000000000000
 C   -1.169632193311   -0.761186591759    0.000000000000
 O   -1.109085193311    0.619274408241    0.000000000000
 H   -2.012216193311    0.967701408241    0.000000000000
RB    1.286091685844    1.865519856602    0.000000000000
