14

 C   -1.362695011244   -3.685961423537    0.000000000000
 H   -1.354973011244   -4.779136423537    0.000000000000
 C   -0.152219011244   -2.966122423537    0.000000000000
 H    0.802799988756   -3.499821423537    0.000000000000
 C   -2.582519011244   -2.985955423537    0.000000000000
 H   -3.530651011244   -3.531767423537    0.000000000000
 C   -0.154627011244   -1.560977423537    0.000000000000
 H    0.776726988756   -0.988438423537    0.000000000000
 C   -2.596370011244   -1.578474423537    0.000000000000
 H   -3.548369011244   -1.035753423537    0.000000000000
 C   -1.380093011244   -0.870692423537    0.000000000000
 O   -1.319546011244    0.509768576463    0.000000000000
 H   -2.222677011244    0.858195576463    0.000000000000
RB    1.519182141829    1.986800218965    0.000000000000
