14

 C   -1.404787174831   -3.707862589893    0.000000000000
 H   -1.397065174831   -4.801037589893    0.000000000000
 C   -0.194311174831   -2.988023589893    0.000000000000
 H    0.760707825169   -3.521722589893    0.000000000000
 C   -2.624611174831   -3.007856589893    0.000000000000
 H   -3.572743174831   -3.553668589893    0.000000000000
 C   -0.196719174831   -1.582878589893    0.000000000000
 H    0.734634825169   -1.010339589893    0.000000000000
 C   -2.638462174831   -1.600375589893    0.000000000000
 H   -3.590461174831   -1.057654589893    0.000000000000
 C   -1.422185174831   -0.892593589893    0.000000000000
 O   -1.361638174831    0.487867410107    0.000000000000
 H   -2.264769174831    0.836294410107    0.000000000000
RB    1.565800233026    2.011056291437    0.000000000000
