14

 C   -1.446879338417   -3.729763756248    0.000000000000
 H   -1.439157338417   -4.822938756248    0.000000000000
 C   -0.236403338417   -3.009924756248    0.000000000000
 H    0.718615661583   -3.543623756248    0.000000000000
 C   -2.666703338417   -3.029757756248    0.000000000000
 H   -3.614835338417   -3.575569756248    0.000000000000
 C   -0.238811338417   -1.604779756248    0.000000000000
 H    0.692542661583   -1.032240756248    0.000000000000
 C   -2.680554338417   -1.622276756248    0.000000000000
 H   -3.632553338417   -1.079555756248    0.000000000000
 C   -1.464277338417   -0.914494756248    0.000000000000
 O   -1.403730338417    0.465966243752    0.000000000000
 H   -2.306861338417    0.814393243752    0.000000000000
RB    1.612418324223    2.035312363910    0.000000000000
