14

 C   -1.531063665590   -3.773566088960    0.000000000000
 H   -1.523341665590   -4.866741088960    0.000000000000
 C   -0.320587665590   -3.053727088960    0.000000000000
 H    0.634431334410   -3.587426088960    0.000000000000
 C   -2.750887665590   -3.073560088960    0.000000000000
 H   -3.699019665590   -3.619372088960    0.000000000000
 C   -0.322995665590   -1.648582088960    0.000000000000
 H    0.608358334410   -1.076043088960    0.000000000000
 C   -2.764738665590   -1.666079088960    0.000000000000
 H   -3.716737665590   -1.123358088960    0.000000000000
 C   -1.548461665590   -0.958297088960    0.000000000000
 O   -1.487914665590    0.422163911040    0.000000000000
 H   -2.391045665590    0.770590911040    0.000000000000
RB    1.705654506617    2.083824508855    0.000000000000
