14

 C   -1.573155829177   -3.795467255315    0.000000000000
 H   -1.565433829177   -4.888642255315    0.000000000000
 C   -0.362679829177   -3.075628255315    0.000000000000
 H    0.592339170823   -3.609327255315    0.000000000000
 C   -2.792979829177   -3.095461255315    0.000000000000
 H   -3.741111829177   -3.641273255315    0.000000000000
 C   -0.365087829177   -1.670483255315    0.000000000000
 H    0.566266170823   -1.097944255315    0.000000000000
 C   -2.806830829177   -1.687980255315    0.000000000000
 H   -3.758829829177   -1.145259255315    0.000000000000
 C   -1.590553829177   -0.980198255315    0.000000000000
 O   -1.530006829177    0.400262744685    0.000000000000
 H   -2.433137829177    0.748689744685    0.000000000000
RB    1.752272597813    2.108080581327    0.000000000000
