14

 C   -1.657340156350   -3.839269588026    0.000000000000
 H   -1.649618156350   -4.932444588026    0.000000000000
 C   -0.446864156350   -3.119430588026    0.000000000000
 H    0.508154843650   -3.653129588026    0.000000000000
 C   -2.877164156350   -3.139263588026    0.000000000000
 H   -3.825296156350   -3.685075588026    0.000000000000
 C   -0.449272156350   -1.714285588026    0.000000000000
 H    0.482081843650   -1.141746588026    0.000000000000
 C   -2.891015156350   -1.731782588026    0.000000000000
 H   -3.843014156350   -1.189061588026    0.000000000000
 C   -1.674738156350   -1.024000588026    0.000000000000
 O   -1.614191156350    0.356460411974    0.000000000000
 H   -2.517322156350    0.704887411974    0.000000000000
RB    1.845508780207    2.156592726273    0.000000000000
