14

 C   -1.867800974283   -3.948775419804    0.000000000000
 H   -1.860078974283   -5.041950419804    0.000000000000
 C   -0.657324974283   -3.228936419804    0.000000000000
 H    0.297694025717   -3.762635419804    0.000000000000
 C   -3.087624974283   -3.248769419804    0.000000000000
 H   -4.035756974283   -3.794581419804    0.000000000000
 C   -0.659732974283   -1.823791419804    0.000000000000
 H    0.271621025717   -1.251252419804    0.000000000000
 C   -3.101475974283   -1.841288419804    0.000000000000
 H   -4.053474974283   -1.298567419804    0.000000000000
 C   -1.885198974283   -1.133506419804    0.000000000000
 O   -1.824651974283    0.246954580196    0.000000000000
 H   -2.727782974283    0.595381580196    0.000000000000
RB    2.078599236192    2.277873088636    0.000000000000
