14

 C   -1.994077465043   -4.014478918871    0.000000000000
 H   -1.986355465043   -5.107653918871    0.000000000000
 C   -0.783601465043   -3.294639918871    0.000000000000
 H    0.171417534957   -3.828338918871    0.000000000000
 C   -3.213901465043   -3.314472918871    0.000000000000
 H   -4.162033465043   -3.860284918871    0.000000000000
 C   -0.786009465043   -1.889494918871    0.000000000000
 H    0.145344534957   -1.316955918871    0.000000000000
 C   -3.227752465043   -1.906991918871    0.000000000000
 H   -4.179751465043   -1.364270918871    0.000000000000
 C   -2.011475465043   -1.199209918871    0.000000000000
 O   -1.950928465043    0.181251081129    0.000000000000
 H   -2.854059465043    0.529678081129    0.000000000000
RB    2.218453509783    2.350641306053    0.000000000000
