14

 C   -2.120353955803   -4.080182417938    0.000000000000
 H   -2.112631955803   -5.173357417938    0.000000000000
 C   -0.909877955803   -3.360343417938    0.000000000000
 H    0.045141044197   -3.894042417938    0.000000000000
 C   -3.340177955803   -3.380176417938    0.000000000000
 H   -4.288309955803   -3.925988417938    0.000000000000
 C   -0.912285955803   -1.955198417938    0.000000000000
 H    0.019068044197   -1.382659417938    0.000000000000
 C   -3.354028955803   -1.972695417938    0.000000000000
 H   -4.306027955803   -1.429974417938    0.000000000000
 C   -2.137751955803   -1.264913417938    0.000000000000
 O   -2.077204955803    0.115547582062    0.000000000000
 H   -2.980335955803    0.463974582062    0.000000000000
RB    2.358307783373    2.423409523471    0.000000000000
