14

 C   -2.288722610149   -4.167787083360    0.000000000000
 H   -2.281000610149   -5.260962083360    0.000000000000
 C   -1.078246610149   -3.447948083360    0.000000000000
 H   -0.123227610149   -3.981647083360    0.000000000000
 C   -3.508546610149   -3.467781083360    0.000000000000
 H   -4.456678610149   -4.013593083360    0.000000000000
 C   -1.080654610149   -2.042803083360    0.000000000000
 H   -0.149300610149   -1.470264083360    0.000000000000
 C   -3.522397610149   -2.060300083360    0.000000000000
 H   -4.474396610149   -1.517579083360    0.000000000000
 C   -2.306120610149   -1.352518083360    0.000000000000
 O   -2.245573610149    0.027942916640    0.000000000000
 H   -3.148704610149    0.376369916640    0.000000000000
RB    2.544780148161    2.520433813361    0.000000000000
