14

 C   -2.330814773736   -4.189688249716    0.000000000000
 H   -2.323092773736   -5.282863249716    0.000000000000
 C   -1.120338773736   -3.469849249716    0.000000000000
 H   -0.165319773736   -4.003548249716    0.000000000000
 C   -3.550638773736   -3.489682249716    0.000000000000
 H   -4.498770773736   -4.035494249716    0.000000000000
 C   -1.122746773736   -2.064704249716    0.000000000000
 H   -0.191392773736   -1.492165249716    0.000000000000
 C   -3.564489773736   -2.082201249716    0.000000000000
 H   -4.516488773736   -1.539480249716    0.000000000000
 C   -2.348212773736   -1.374419249716    0.000000000000
 O   -2.287665773736    0.006041750284    0.000000000000
 H   -3.190796773736    0.354468750284    0.000000000000
RB    2.591398239358    2.544689885834    0.000000000000
