14

 C   -2.372906937323   -4.211589416072    0.000000000000
 H   -2.365184937323   -5.304764416072    0.000000000000
 C   -1.162430937323   -3.491750416072    0.000000000000
 H   -0.207411937323   -4.025449416072    0.000000000000
 C   -3.592730937323   -3.511583416072    0.000000000000
 H   -4.540862937323   -4.057395416072    0.000000000000
 C   -1.164838937323   -2.086605416072    0.000000000000
 H   -0.233484937323   -1.514066416072    0.000000000000
 C   -3.606581937323   -2.104102416072    0.000000000000
 H   -4.558580937323   -1.561381416072    0.000000000000
 C   -2.390304937323   -1.396320416072    0.000000000000
 O   -2.329757937323   -0.015859416072    0.000000000000
 H   -3.232888937323    0.332567583928    0.000000000000
RB    2.638016330555    2.568945958307    0.000000000000
