14

 C   -2.793828573189   -4.430601079627    0.000000000000
 H   -2.786106573189   -5.523776079627    0.000000000000
 C   -1.583352573189   -3.710762079627    0.000000000000
 H   -0.628333573189   -4.244461079627    0.000000000000
 C   -4.013652573189   -3.730595079627    0.000000000000
 H   -4.961784573189   -4.276407079627    0.000000000000
 C   -1.585760573189   -2.305617079627    0.000000000000
 H   -0.654406573189   -1.733078079627    0.000000000000
 C   -4.027503573189   -2.323114079627    0.000000000000
 H   -4.979502573189   -1.780393079627    0.000000000000
 C   -2.811226573189   -1.615332079627    0.000000000000
 O   -2.750679573189   -0.234871079627    0.000000000000
 H   -3.653810573189    0.113555920373    0.000000000000
RB    3.104197242524    2.811506683032    0.000000000000
