14

 C   -3.046381554708   -4.562008077761    0.000000000000
 H   -3.038659554708   -5.655183077761    0.000000000000
 C   -1.835905554708   -3.842169077761    0.000000000000
 H   -0.880886554708   -4.375868077761    0.000000000000
 C   -4.266205554708   -3.862002077761    0.000000000000
 H   -5.214337554708   -4.407814077761    0.000000000000
 C   -1.838313554708   -2.437024077761    0.000000000000
 H   -0.906959554708   -1.864485077761    0.000000000000
 C   -4.280056554708   -2.454521077761    0.000000000000
 H   -5.232055554708   -1.911800077761    0.000000000000
 C   -3.063779554708   -1.746739077761    0.000000000000
 O   -3.003232554708   -0.366278077761    0.000000000000
 H   -3.906363554708   -0.017851077761    0.000000000000
RB    3.383905789706    2.957043117868    0.000000000000
