14

 C   -3.298934536228   -4.693415075895    0.000000000000
 H   -3.291212536228   -5.786590075895    0.000000000000
 C   -2.088458536228   -3.973576075895    0.000000000000
 H   -1.133439536228   -4.507275075895    0.000000000000
 C   -4.518758536228   -3.993409075895    0.000000000000
 H   -5.466890536228   -4.539221075895    0.000000000000
 C   -2.090866536228   -2.568431075895    0.000000000000
 H   -1.159512536228   -1.995892075895    0.000000000000
 C   -4.532609536228   -2.585928075895    0.000000000000
 H   -5.484608536228   -2.043207075895    0.000000000000
 C   -3.316332536228   -1.878146075895    0.000000000000
 O   -3.255785536228   -0.497685075895    0.000000000000
 H   -4.158916536228   -0.149258075895    0.000000000000
RB    3.663614336887    3.102579552703    0.000000000000
