14

 C   -3.341026699814   -4.715316242250    0.000000000000
 H   -3.333304699814   -5.808491242250    0.000000000000
 C   -2.130550699814   -3.995477242250    0.000000000000
 H   -1.175531699814   -4.529176242250    0.000000000000
 C   -4.560850699814   -4.015310242250    0.000000000000
 H   -5.508982699814   -4.561122242250    0.000000000000
 C   -2.132958699814   -2.590332242250    0.000000000000
 H   -1.201604699814   -2.017793242250    0.000000000000
 C   -4.574701699814   -2.607829242250    0.000000000000
 H   -5.526700699814   -2.065108242250    0.000000000000
 C   -3.358424699814   -1.900047242250    0.000000000000
 O   -3.297877699814   -0.519586242250    0.000000000000
 H   -4.201008699814   -0.171159242250    0.000000000000
RB    3.710232428084    3.126835625176    0.000000000000
