14

 C   -3.383118863401   -4.737217408606    0.000000000000
 H   -3.375396863401   -5.830392408606    0.000000000000
 C   -2.172642863401   -4.017378408606    0.000000000000
 H   -1.217623863401   -4.551077408606    0.000000000000
 C   -4.602942863401   -4.037211408606    0.000000000000
 H   -5.551074863401   -4.583023408606    0.000000000000
 C   -2.175050863401   -2.612233408606    0.000000000000
 H   -1.243696863401   -2.039694408606    0.000000000000
 C   -4.616793863401   -2.629730408606    0.000000000000
 H   -5.568792863401   -2.087009408606    0.000000000000
 C   -3.400516863401   -1.921948408606    0.000000000000
 O   -3.339969863401   -0.541487408606    0.000000000000
 H   -4.243100863401   -0.193060408606    0.000000000000
RB    3.756850519281    3.151091697648    0.000000000000
