14

 C   -3.551487517747   -4.824822074028    0.000000000000
 H   -3.543765517747   -5.917997074028    0.000000000000
 C   -2.341011517747   -4.104983074028    0.000000000000
 H   -1.385992517747   -4.638682074028    0.000000000000
 C   -4.771311517747   -4.124816074028    0.000000000000
 H   -5.719443517747   -4.670628074028    0.000000000000
 C   -2.343419517747   -2.699838074028    0.000000000000
 H   -1.412065517747   -2.127299074028    0.000000000000
 C   -4.785162517747   -2.717335074028    0.000000000000
 H   -5.737161517747   -2.174614074028    0.000000000000
 C   -3.568885517747   -2.009553074028    0.000000000000
 O   -3.508338517747   -0.629092074028    0.000000000000
 H   -4.411469517747   -0.280665074028    0.000000000000
RB    3.943322884069    3.248115987539    0.000000000000
