14

 C   -3.719856172094   -4.912426739451    0.000000000000
 H   -3.712134172094   -6.005601739451    0.000000000000
 C   -2.509380172094   -4.192587739451    0.000000000000
 H   -1.554361172094   -4.726286739451    0.000000000000
 C   -4.939680172094   -4.212420739451    0.000000000000
 H   -5.887812172094   -4.758232739451    0.000000000000
 C   -2.511788172094   -2.787442739451    0.000000000000
 H   -1.580434172094   -2.214903739451    0.000000000000
 C   -4.953531172094   -2.804939739451    0.000000000000
 H   -5.905530172094   -2.262218739451    0.000000000000
 C   -3.737254172094   -2.097157739451    0.000000000000
 O   -3.676707172094   -0.716696739451    0.000000000000
 H   -4.579838172094   -0.368269739451    0.000000000000
RB    4.129795248857    3.345140277429    0.000000000000
