14

 C   -3.761948335680   -4.934327905806    0.000000000000
 H   -3.754226335680   -6.027502905806    0.000000000000
 C   -2.551472335680   -4.214488905806    0.000000000000
 H   -1.596453335680   -4.748187905806    0.000000000000
 C   -4.981772335680   -4.234321905806    0.000000000000
 H   -5.929904335680   -4.780133905806    0.000000000000
 C   -2.553880335680   -2.809343905806    0.000000000000
 H   -1.622526335680   -2.236804905806    0.000000000000
 C   -4.995623335680   -2.826840905806    0.000000000000
 H   -5.947622335680   -2.284119905806    0.000000000000
 C   -3.779346335680   -2.119058905806    0.000000000000
 O   -3.718799335680   -0.738597905806    0.000000000000
 H   -4.621930335680   -0.390170905806    0.000000000000
RB    4.176413340054    3.369396349902    0.000000000000
