14

 C   -4.056593480787   -5.087636070295    0.000000000000
 H   -4.048871480787   -6.180811070295    0.000000000000
 C   -2.846117480787   -4.367797070295    0.000000000000
 H   -1.891098480787   -4.901496070295    0.000000000000
 C   -5.276417480787   -4.387630070295    0.000000000000
 H   -6.224549480787   -4.933442070295    0.000000000000
 C   -2.848525480787   -2.962652070295    0.000000000000
 H   -1.917171480787   -2.390113070295    0.000000000000
 C   -5.290268480787   -2.980149070295    0.000000000000
 H   -6.242267480787   -2.437428070295    0.000000000000
 C   -4.073991480787   -2.272367070295    0.000000000000
 O   -4.013444480787   -0.891906070295    0.000000000000
 H   -4.916575480787   -0.543479070295    0.000000000000
RB    4.502739978432    3.539188857210    0.000000000000
