7

 H   -2.516400859765    1.979451796264    0.000000000000
 H   -0.976841859765    2.070430796264    0.902247000000
 H   -0.976841859765    2.070430796264   -0.902247000000
 C   -1.460652859765    1.673910796264    0.000000000000
 S   -1.460652859765   -0.158815203736    0.000000000000
 H   -0.120069859765   -0.315206203736    0.000000000000
 K    1.767131781474   -0.535365158366    0.000000000000
