7

 H   -2.872409122099    2.020983344967    0.000000000000
 H   -1.332850122099    2.111962344967    0.902247000000
 H   -1.332850122099    2.111962344967   -0.902247000000
 C   -1.816661122099    1.715442344967    0.000000000000
 S   -1.816661122099   -0.117283655033    0.000000000000
 H   -0.476078122099   -0.273674655033    0.000000000000
 K    2.205734736504   -0.586532116876    0.000000000000
