7

 H   -3.005912220474    2.036557675730    0.000000000000
 H   -1.466353220474    2.127536675730    0.902247000000
 H   -1.466353220474    2.127536675730   -0.902247000000
 C   -1.950164220474    1.731016675730    0.000000000000
 S   -1.950164220474   -0.101709324270    0.000000000000
 H   -0.609581220474   -0.258100324270    0.000000000000
 K    2.370210844641   -0.605719726317    0.000000000000
