7

 H   -3.183916351641    2.057323450082    0.000000000000
 H   -1.644357351641    2.148302450082    0.902247000000
 H   -1.644357351641    2.148302450082   -0.902247000000
 C   -2.128168351641    1.751782450082    0.000000000000
 S   -2.128168351641   -0.080943549918    0.000000000000
 H   -0.787585351641   -0.237334549918    0.000000000000
 K    2.589512322156   -0.631303205572    0.000000000000
