7

 H   -3.228417384432    2.062514893670    0.000000000000
 H   -1.688858384432    2.153493893670    0.902247000000
 H   -1.688858384432    2.153493893670   -0.902247000000
 C   -2.172669384432    1.756973893670    0.000000000000
 S   -2.172669384432   -0.075752106330    0.000000000000
 H   -0.832086384432   -0.232143106330    0.000000000000
 K    2.644337691535   -0.637699075386    0.000000000000
