7

 H   -3.317419450016    2.072897780845    0.000000000000
 H   -1.777860450016    2.163876780845    0.902247000000
 H   -1.777860450016    2.163876780845   -0.902247000000
 C   -2.261671450016    1.767356780845    0.000000000000
 S   -2.261671450016   -0.065369219155    0.000000000000
 H   -0.921088450016   -0.221760219155    0.000000000000
 K    2.753988430292   -0.650490815013    0.000000000000
