7

 H   -3.361920482808    2.078089224433    0.000000000000
 H   -1.822361482808    2.169068224433    0.902247000000
 H   -1.822361482808    2.169068224433   -0.902247000000
 C   -2.306172482808    1.772548224433    0.000000000000
 S   -2.306172482808   -0.060177775567    0.000000000000
 H   -0.965589482808   -0.216568775567    0.000000000000
 K    2.808813799671   -0.656886684827    0.000000000000
