7

 H   -3.406421515599    2.083280668021    0.000000000000
 H   -1.866862515599    2.174259668021    0.902247000000
 H   -1.866862515599    2.174259668021   -0.902247000000
 C   -2.350673515599    1.777739668021    0.000000000000
 S   -2.350673515599   -0.054986331979    0.000000000000
 H   -1.010090515599   -0.211377331979    0.000000000000
 K    2.863639169050   -0.663282554641    0.000000000000
