7

 H   -3.628926679558    2.109237885960    0.000000000000
 H   -2.089367679558    2.200216885960    0.902247000000
 H   -2.089367679558    2.200216885960   -0.902247000000
 C   -2.573178679558    1.803696885960    0.000000000000
 S   -2.573178679558   -0.029029114040    0.000000000000
 H   -1.232595679558   -0.185420114040    0.000000000000
 K    3.137766015943   -0.695261903710    0.000000000000
