7

 H   -3.673427712350    2.114429329548    0.000000000000
 H   -2.133868712350    2.205408329548    0.902247000000
 H   -2.133868712350    2.205408329548   -0.902247000000
 C   -2.617679712350    1.808888329548    0.000000000000
 S   -2.617679712350   -0.023837670452    0.000000000000
 H   -1.277096712350   -0.180228670452    0.000000000000
 K    3.192591385322   -0.701657773523    0.000000000000
