7

 H   -3.762429777933    2.124812216724    0.000000000000
 H   -2.222870777933    2.215791216724    0.902247000000
 H   -2.222870777933    2.215791216724   -0.902247000000
 C   -2.706681777933    1.819271216724    0.000000000000
 S   -2.706681777933   -0.013454783276    0.000000000000
 H   -1.366098777933   -0.169845783276    0.000000000000
 K    3.302242124080   -0.714449513151    0.000000000000
