7

 H   -3.895932876308    2.140386547487    0.000000000000
 H   -2.356373876308    2.231365547487    0.902247000000
 H   -2.356373876308    2.231365547487   -0.902247000000
 C   -2.840184876308    1.834845547487    0.000000000000
 S   -2.840184876308    0.002119547487    0.000000000000
 H   -1.499601876308   -0.154271452513    0.000000000000
 K    3.466718232216   -0.733637122592    0.000000000000
