7

 H   -4.029435974684    2.155960878251    0.000000000000
 H   -2.489876974684    2.246939878251    0.902247000000
 H   -2.489876974684    2.246939878251   -0.902247000000
 C   -2.973687974684    1.850419878251    0.000000000000
 S   -2.973687974684    0.017693878251    0.000000000000
 H   -1.633104974684   -0.138697121749    0.000000000000
 K    3.631194340352   -0.752824732033    0.000000000000
