7

 H   -4.162939073059    2.171535209015    0.000000000000
 H   -2.623380073059    2.262514209015    0.902247000000
 H   -2.623380073059    2.262514209015   -0.902247000000
 C   -3.107191073059    1.865994209015    0.000000000000
 S   -3.107191073059    0.033268209015    0.000000000000
 H   -1.766608073059   -0.123122790985    0.000000000000
 K    3.795670448489   -0.772012341475    0.000000000000
