7

 H   -4.207440105850    2.176726652602    0.000000000000
 H   -2.667881105850    2.267705652602    0.902247000000
 H   -2.667881105850    2.267705652602   -0.902247000000
 C   -3.151692105850    1.871185652602    0.000000000000
 S   -3.151692105850    0.038459652602    0.000000000000
 H   -1.811109105850   -0.117931347398    0.000000000000
 K    3.850495817867   -0.778408211288    0.000000000000
