7

 H   -4.251941138642    2.181918096190    0.000000000000
 H   -2.712382138642    2.272897096190    0.902247000000
 H   -2.712382138642    2.272897096190   -0.902247000000
 C   -3.196193138642    1.876377096190    0.000000000000
 S   -3.196193138642    0.043651096190    0.000000000000
 H   -1.855610138642   -0.112739903810    0.000000000000
 K    3.905321187246   -0.784804081102    0.000000000000
