7

 H   -4.296442171434    2.187109539778    0.000000000000
 H   -2.756883171434    2.278088539778    0.902247000000
 H   -2.756883171434    2.278088539778   -0.902247000000
 C   -3.240694171434    1.881568539778    0.000000000000
 S   -3.240694171434    0.048842539778    0.000000000000
 H   -1.900111171434   -0.107548460222    0.000000000000
 K    3.960146556625   -0.791199950916    0.000000000000
