7

 H   -4.340943204226    2.192300983366    0.000000000000
 H   -2.801384204226    2.283279983366    0.902247000000
 H   -2.801384204226    2.283279983366   -0.902247000000
 C   -3.285195204226    1.886759983366    0.000000000000
 S   -3.285195204226    0.054033983366    0.000000000000
 H   -1.944612204226   -0.102357016634    0.000000000000
 K    4.014971926004   -0.797595820730    0.000000000000
