7

 H   -4.429945269809    2.202683870542    0.000000000000
 H   -2.890386269809    2.293662870542    0.902247000000
 H   -2.890386269809    2.293662870542   -0.902247000000
 C   -3.374197269809    1.897142870542    0.000000000000
 S   -3.374197269809    0.064416870542    0.000000000000
 H   -2.033614269809   -0.091974129458    0.000000000000
 K    4.124622664761   -0.810387560357    0.000000000000
