7

 H   -4.474446302601    2.207875314129    0.000000000000
 H   -2.934887302601    2.298854314129    0.902247000000
 H   -2.934887302601    2.298854314129   -0.902247000000
 C   -3.418698302601    1.902334314129    0.000000000000
 S   -3.418698302601    0.069608314129    0.000000000000
 H   -2.078115302601   -0.086782685871    0.000000000000
 K    4.179448034140   -0.816783430171    0.000000000000
