7

 H   -4.518947335393    2.213066757717    0.000000000000
 H   -2.979388335393    2.304045757717    0.902247000000
 H   -2.979388335393    2.304045757717   -0.902247000000
 C   -3.463199335393    1.907525757717    0.000000000000
 S   -3.463199335393    0.074799757717    0.000000000000
 H   -2.122616335393   -0.081591242283    0.000000000000
 K    4.234273403519   -0.823179299984    0.000000000000
