7

 H   -4.563448368184    2.218258201305    0.000000000000
 H   -3.023889368184    2.309237201305    0.902247000000
 H   -3.023889368184    2.309237201305   -0.902247000000
 C   -3.507700368184    1.912717201305    0.000000000000
 S   -3.507700368184    0.079991201305    0.000000000000
 H   -2.167117368184   -0.076399798695    0.000000000000
 K    4.289098772897   -0.829575169798    0.000000000000
