7

 H   -4.785953532143    2.244215419244    0.000000000000
 H   -3.246394532143    2.335194419244    0.902247000000
 H   -3.246394532143    2.335194419244   -0.902247000000
 C   -3.730205532143    1.938674419244    0.000000000000
 S   -3.730205532143    0.105948419244    0.000000000000
 H   -2.389622532143   -0.050442580756    0.000000000000
 K    4.563225619791   -0.861554518867    0.000000000000
