7

 H   -4.830454564935    2.249406862832    0.000000000000
 H   -3.290895564935    2.340385862832    0.902247000000
 H   -3.290895564935    2.340385862832   -0.902247000000
 C   -3.774706564935    1.943865862832    0.000000000000
 S   -3.774706564935    0.111139862832    0.000000000000
 H   -2.434123564935   -0.045251137168    0.000000000000
 K    4.618050989170   -0.867950388681    0.000000000000
