7

 H   -4.874955597726    2.254598306420    0.000000000000
 H   -3.335396597726    2.345577306420    0.902247000000
 H   -3.335396597726    2.345577306420   -0.902247000000
 C   -3.819207597726    1.949057306420    0.000000000000
 S   -3.819207597726    0.116331306420    0.000000000000
 H   -2.478624597726   -0.040059693580    0.000000000000
 K    4.672876358549   -0.874346258494    0.000000000000
