7

 H   -4.919456630518    2.259789750008    0.000000000000
 H   -3.379897630518    2.350768750008    0.902247000000
 H   -3.379897630518    2.350768750008   -0.902247000000
 C   -3.863708630518    1.954248750008    0.000000000000
 S   -3.863708630518    0.121522750008    0.000000000000
 H   -2.523125630518   -0.034868249992    0.000000000000
 K    4.727701727927   -0.880742128308    0.000000000000
