7

 H   -5.008458696102    2.270172637184    0.000000000000
 H   -3.468899696102    2.361151637184    0.902247000000
 H   -3.468899696102    2.361151637184   -0.902247000000
 C   -3.952710696102    1.964631637184    0.000000000000
 S   -3.952710696102    0.131905637184    0.000000000000
 H   -2.612127696102   -0.024485362816    0.000000000000
 K    4.837352466685   -0.893533867936    0.000000000000
