7

 H   -5.141961794477    2.285746967947    0.000000000000
 H   -3.602402794477    2.376725967947    0.902247000000
 H   -3.602402794477    2.376725967947   -0.902247000000
 C   -4.086213794477    1.980205967947    0.000000000000
 S   -4.086213794477    0.147479967947    0.000000000000
 H   -2.745630794477   -0.008911032053    0.000000000000
 K    5.001828574821   -0.912721477377    0.000000000000
