7

 H   -5.186462827268    2.290938411535    0.000000000000
 H   -3.646903827268    2.381917411535    0.902247000000
 H   -3.646903827268    2.381917411535   -0.902247000000
 C   -4.130714827268    1.985397411535    0.000000000000
 S   -4.130714827268    0.152671411535    0.000000000000
 H   -2.790131827268   -0.003719588465    0.000000000000
 K    5.056653944200   -0.919117347191    0.000000000000
