7

 H   -5.230963860060    2.296129855123    0.000000000000
 H   -3.691404860060    2.387108855123    0.902247000000
 H   -3.691404860060    2.387108855123   -0.902247000000
 C   -4.175215860060    1.990588855123    0.000000000000
 S   -4.175215860060    0.157862855123    0.000000000000
 H   -2.834632860060    0.001471855123    0.000000000000
 K    5.111479313579   -0.925513217004    0.000000000000
