7

 H   -5.275464892852    2.301321298711    0.000000000000
 H   -3.735905892852    2.392300298711    0.902247000000
 H   -3.735905892852    2.392300298711   -0.902247000000
 C   -4.219716892852    1.995780298711    0.000000000000
 S   -4.219716892852    0.163054298711    0.000000000000
 H   -2.879133892852    0.006663298711    0.000000000000
 K    5.166304682958   -0.931909086818    0.000000000000
