7

 H   -5.364466958435    2.311704185886    0.000000000000
 H   -3.824907958435    2.402683185886    0.902247000000
 H   -3.824907958435    2.402683185886   -0.902247000000
 C   -4.308718958435    2.006163185886    0.000000000000
 S   -4.308718958435    0.173437185886    0.000000000000
 H   -2.968135958435    0.017046185886    0.000000000000
 K    5.275955421715   -0.944700826446    0.000000000000
