7

 H   -5.408967991227    2.316895629474    0.000000000000
 H   -3.869408991227    2.407874629474    0.902247000000
 H   -3.869408991227    2.407874629474   -0.902247000000
 C   -4.353219991227    2.011354629474    0.000000000000
 S   -4.353219991227    0.178628629474    0.000000000000
 H   -3.012636991227    0.022237629474    0.000000000000
 K    5.330780791094   -0.951096696259    0.000000000000
