7

 H   -5.497970056811    2.327278516650    0.000000000000
 H   -3.958411056811    2.418257516650    0.902247000000
 H   -3.958411056811    2.418257516650   -0.902247000000
 C   -4.442222056811    2.021737516650    0.000000000000
 S   -4.442222056811    0.189011516650    0.000000000000
 H   -3.101639056811    0.032620516650    0.000000000000
 K    5.440431529851   -0.963888435887    0.000000000000
