7

 H   -5.675974187977    2.348044291001    0.000000000000
 H   -4.136415187977    2.439023291001    0.902247000000
 H   -4.136415187977    2.439023291001   -0.902247000000
 C   -4.620226187977    2.042503291001    0.000000000000
 S   -4.620226187977    0.209777291001    0.000000000000
 H   -3.279643187977    0.053386291001    0.000000000000
 K    5.659733007366   -0.989471915142    0.000000000000
