7

 H   -5.720475220769    2.353235734589    0.000000000000
 H   -4.180916220769    2.444214734589    0.902247000000
 H   -4.180916220769    2.444214734589   -0.902247000000
 C   -4.664727220769    2.047694734589    0.000000000000
 S   -4.664727220769    0.214968734589    0.000000000000
 H   -3.324144220769    0.058577734589    0.000000000000
 K    5.714558376745   -0.995867784955    0.000000000000
