7

 H   -5.764976253561    2.358427178177    0.000000000000
 H   -4.225417253561    2.449406178177    0.902247000000
 H   -4.225417253561    2.449406178177   -0.902247000000
 C   -4.709228253561    2.052886178177    0.000000000000
 S   -4.709228253561    0.220160178177    0.000000000000
 H   -3.368645253561    0.063769178177    0.000000000000
 K    5.769383746124   -1.002263654769    0.000000000000
