7

 H   -5.809477286353    2.363618621765    0.000000000000
 H   -4.269918286353    2.454597621765    0.902247000000
 H   -4.269918286353    2.454597621765   -0.902247000000
 C   -4.753729286353    2.058077621765    0.000000000000
 S   -4.753729286353    0.225351621765    0.000000000000
 H   -3.413146286353    0.068960621765    0.000000000000
 K    5.824209115503   -1.008659524583    0.000000000000
