7

 H   -5.853978319144    2.368810065353    0.000000000000
 H   -4.314419319144    2.459789065353    0.902247000000
 H   -4.314419319144    2.459789065353   -0.902247000000
 C   -4.798230319144    2.063269065353    0.000000000000
 S   -4.798230319144    0.230543065353    0.000000000000
 H   -3.457647319144    0.074152065353    0.000000000000
 K    5.879034484881   -1.015055394397    0.000000000000
