7

 H   -6.076483483103    2.394767283292    0.000000000000
 H   -4.536924483103    2.485746283292    0.902247000000
 H   -4.536924483103    2.485746283292   -0.902247000000
 C   -5.020735483103    2.089226283292    0.000000000000
 S   -5.020735483103    0.256500283292    0.000000000000
 H   -3.680152483103    0.100109283292    0.000000000000
 K    6.153161331775   -1.047034743465    0.000000000000
