27

 C   -1.114519421814   -5.023283362041    0.000000000000
 H   -0.948619421814   -6.101783362041    0.000000000000
 C   -0.024689421814   -4.138843362041    0.000000000000
 H    0.995170578186   -4.528963362041    0.000000000000
 C   -2.420489421814   -4.505223362041    0.000000000000
 H   -3.281049421814   -5.177453362041    0.000000000000
 C   -0.225529421814   -2.748233362041    0.000000000000
 H    0.654920578186   -2.107133362041    0.000000000000
 C   -2.635349421814   -3.117683362041    0.000000000000
 H   -3.654429421814   -2.719443362041    0.000000000000
 C   -1.537779421814   -2.247773362041    0.000000000000
 O   -1.714359421814   -0.858883362041    0.000000000000
 H   -2.664939421814   -0.670213362041    0.000000000000
 K    0.516770578186    0.258896637959    0.000000000000
 O    1.500249630641    0.751612533158    0.000000000000
 H    2.450828060016    0.562948217488    0.000000000000
 C    1.323671362536    2.140502780849    0.000000000000
 C    0.011415443248    2.640966770357    0.000000000000
 H   -0.869031556562    1.999860509723    0.000000000000
 C   -0.189426339617    4.031578139452    0.000000000000
 H   -1.209278287916    4.421695160293    0.000000000000
 C    0.900409679424    4.916020407325    0.000000000000
 H    0.734510959112    5.994515380423    0.000000000000
 C    2.206380120366    4.397964514310    0.000000000000
 H    3.066946548821    5.070191724572    0.000000000000
 C    2.421246022543    3.010412219014    0.000000000000
 H    3.440316874259    2.612174634672    0.000000000000
