27

 C   -1.188583403318   -5.060388881327    0.000000000000
 H   -1.022683403318   -6.138888881327    0.000000000000
 C   -0.098753403318   -4.175948881327    0.000000000000
 H    0.921106596682   -4.566068881327    0.000000000000
 C   -2.494553403318   -4.542328881327    0.000000000000
 H   -3.355113403318   -5.214558881327    0.000000000000
 C   -0.299593403318   -2.785338881327    0.000000000000
 H    0.580856596682   -2.144238881327    0.000000000000
 C   -2.709413403318   -3.154788881327    0.000000000000
 H   -3.728493403318   -2.756548881327    0.000000000000
 C   -1.611843403318   -2.284878881327    0.000000000000
 O   -1.788423403318   -0.895988881327    0.000000000000
 H   -2.739003403318   -0.707318881327    0.000000000000
 K    0.442706596682    0.221791118673    0.000000000000
 O    1.605000022312    0.804091722089    0.000000000000
 H    2.555578451687    0.615427406420    0.000000000000
 C    1.428421754207    2.192981969781    0.000000000000
 C    0.116165834919    2.693445959289    0.000000000000
 H   -0.764281164892    2.052339698654    0.000000000000
 C   -0.084675947947    4.084057328384    0.000000000000
 H   -1.104527896246    4.474174349225    0.000000000000
 C    1.005160071095    4.968499596257    0.000000000000
 H    0.839261350783    6.046994569355    0.000000000000
 C    2.311130512036    4.450443703242    0.000000000000
 H    3.171696940491    5.122670913503    0.000000000000
 C    2.525996414214    3.062891407946    0.000000000000
 H    3.545067265930    2.664653823604    0.000000000000
