27

 C   -1.225615394069   -5.078941640970    0.000000000000
 H   -1.059715394069   -6.157441640970    0.000000000000
 C   -0.135785394069   -4.194501640970    0.000000000000
 H    0.884074605931   -4.584621640970    0.000000000000
 C   -2.531585394069   -4.560881640970    0.000000000000
 H   -3.392145394069   -5.233111640970    0.000000000000
 C   -0.336625394069   -2.803891640970    0.000000000000
 H    0.543824605931   -2.162791640970    0.000000000000
 C   -2.746445394069   -3.173341640970    0.000000000000
 H   -3.765525394069   -2.775101640970    0.000000000000
 C   -1.648875394069   -2.303431640970    0.000000000000
 O   -1.825455394069   -0.914541640970    0.000000000000
 H   -2.776035394069   -0.725871640970    0.000000000000
 K    0.405674605931    0.203238359030    0.000000000000
 O    1.657375218147    0.830331316555    0.000000000000
 H    2.607953647522    0.641667000886    0.000000000000
 C    1.480796950042    2.219221564247    0.000000000000
 C    0.168541030754    2.719685553755    0.000000000000
 H   -0.711905969056    2.078579293120    0.000000000000
 C   -0.032300752112    4.110296922850    0.000000000000
 H   -1.052152700411    4.500413943691    0.000000000000
 C    1.057535266930    4.994739190723    0.000000000000
 H    0.891636546618    6.073234163821    0.000000000000
 C    2.363505707871    4.476683297708    0.000000000000
 H    3.224072136326    5.148910507969    0.000000000000
 C    2.578371610049    3.089131002412    0.000000000000
 H    3.597442461765    2.690893418070    0.000000000000
