27

 C   -1.299679375573   -5.116047160256    0.000000000000
 H   -1.133779375573   -6.194547160256    0.000000000000
 C   -0.209849375573   -4.231607160256    0.000000000000
 H    0.810010624427   -4.621727160256    0.000000000000
 C   -2.605649375573   -4.597987160256    0.000000000000
 H   -3.466209375573   -5.270217160256    0.000000000000
 C   -0.410689375573   -2.840997160256    0.000000000000
 H    0.469760624427   -2.199897160256    0.000000000000
 C   -2.820509375573   -3.210447160256    0.000000000000
 H   -3.839589375573   -2.812207160256    0.000000000000
 C   -1.722939375573   -2.340537160256    0.000000000000
 O   -1.899519375573   -0.951647160256    0.000000000000
 H   -2.850099375573   -0.762977160256    0.000000000000
 K    0.331610624427    0.166132839744    0.000000000000
 O    1.762125609817    0.882810505487    0.000000000000
 H    2.712704039192    0.694146189818    0.000000000000
 C    1.585547341712    2.271700753179    0.000000000000
 C    0.273291422424    2.772164742687    0.000000000000
 H   -0.607155577386    2.131058482052    0.000000000000
 C    0.072449639559    4.162776111781    0.000000000000
 H   -0.947402308741    4.552893132622    0.000000000000
 C    1.162285658600    5.047218379654    0.000000000000
 H    0.996386938288    6.125713352753    0.000000000000
 C    2.468256099541    4.529162486640    0.000000000000
 H    3.328822527997    5.201389696901    0.000000000000
 C    2.683122001719    3.141610191344    0.000000000000
 H    3.702192853435    2.743372607001    0.000000000000
