27

 C   -1.336711366325   -5.134599919899    0.000000000000
 H   -1.170811366325   -6.213099919899    0.000000000000
 C   -0.246881366325   -4.250159919899    0.000000000000
 H    0.772978633675   -4.640279919899    0.000000000000
 C   -2.642681366325   -4.616539919899    0.000000000000
 H   -3.503241366325   -5.288769919899    0.000000000000
 C   -0.447721366325   -2.859549919899    0.000000000000
 H    0.432728633675   -2.218449919899    0.000000000000
 C   -2.857541366325   -3.228999919899    0.000000000000
 H   -3.876621366325   -2.830759919899    0.000000000000
 C   -1.759971366325   -2.359089919899    0.000000000000
 O   -1.936551366325   -0.970199919899    0.000000000000
 H   -2.887131366325   -0.781529919899    0.000000000000
 K    0.294578633675    0.147580080101    0.000000000000
 O    1.814500805652    0.909050099953    0.000000000000
 H    2.765079235027    0.720385784284    0.000000000000
 C    1.637922537547    2.297940347645    0.000000000000
 C    0.325666618260    2.798404337152    0.000000000000
 H   -0.554780381551    2.157298076518    0.000000000000
 C    0.124824835394    4.189015706247    0.000000000000
 H   -0.895027112905    4.579132727088    0.000000000000
 C    1.214660854435    5.073457974120    0.000000000000
 H    1.048762134123    6.151952947219    0.000000000000
 C    2.520631295377    4.555402081106    0.000000000000
 H    3.381197723832    5.227629291367    0.000000000000
 C    2.735497197554    3.167849785809    0.000000000000
 H    3.754568049270    2.769612201467    0.000000000000
