27

 C   -1.410775347828   -5.171705439185    0.000000000000
 H   -1.244875347828   -6.250205439185    0.000000000000
 C   -0.320945347828   -4.287265439185    0.000000000000
 H    0.698914652172   -4.677385439185    0.000000000000
 C   -2.716745347828   -4.653645439185    0.000000000000
 H   -3.577305347828   -5.325875439185    0.000000000000
 C   -0.521785347828   -2.896655439185    0.000000000000
 H    0.358664652172   -2.255555439185    0.000000000000
 C   -2.931605347828   -3.266105439185    0.000000000000
 H   -3.950685347828   -2.867865439185    0.000000000000
 C   -1.834035347828   -2.396195439185    0.000000000000
 O   -2.010615347828   -1.007305439185    0.000000000000
 H   -2.961195347828   -0.818635439185    0.000000000000
 K    0.220514652172    0.110474560815    0.000000000000
 O    1.919251197323    0.961529288885    0.000000000000
 H    2.869829626698    0.772864973215    0.000000000000
 C    1.742672929218    2.350419536576    0.000000000000
 C    0.430417009930    2.850883526084    0.000000000000
 H   -0.450029989881    2.209777265450    0.000000000000
 C    0.229575227064    4.241494895179    0.000000000000
 H   -0.790276721235    4.631611916020    0.000000000000
 C    1.319411246106    5.125937163052    0.000000000000
 H    1.153512525794    6.204432136150    0.000000000000
 C    2.625381687047    4.607881270037    0.000000000000
 H    3.485948115502    5.280108480299    0.000000000000
 C    2.840247589225    3.220328974741    0.000000000000
 H    3.859318440941    2.822091390399    0.000000000000
