27

 C   -1.595935301586   -5.264469237401    0.000000000000
 H   -1.430035301586   -6.342969237401    0.000000000000
 C   -0.506105301586   -4.380029237401    0.000000000000
 H    0.513754698414   -4.770149237401    0.000000000000
 C   -2.901905301586   -4.746409237401    0.000000000000
 H   -3.762465301586   -5.418639237401    0.000000000000
 C   -0.706945301586   -2.989419237401    0.000000000000
 H    0.173504698414   -2.348319237401    0.000000000000
 C   -3.116765301586   -3.358869237401    0.000000000000
 H   -4.135845301586   -2.960629237401    0.000000000000
 C   -2.019195301586   -2.488959237401    0.000000000000
 O   -2.195775301586   -1.100069237401    0.000000000000
 H   -3.146355301586   -0.911399237401    0.000000000000
 K    0.035354698414    0.017710762599    0.000000000000
 O    2.181127176498    1.092727261214    0.000000000000
 H    3.131705605873    0.904062945545    0.000000000000
 C    2.004548908393    2.481617508906    0.000000000000
 C    0.692292989106    2.982081498414    0.000000000000
 H   -0.188154010705    2.340975237779    0.000000000000
 C    0.491451206240    4.372692867508    0.000000000000
 H   -0.528400742059    4.762809888349    0.000000000000
 C    1.581287225281    5.257135135381    0.000000000000
 H    1.415388504969    6.335630108480    0.000000000000
 C    2.887257666223    4.739079242367    0.000000000000
 H    3.747824094678    5.411306452628    0.000000000000
 C    3.102123568400    3.351526947070    0.000000000000
 H    4.121194420116    2.953289362728    0.000000000000
