27

 C   -1.669999283090   -5.301574756687    0.000000000000
 H   -1.504099283090   -6.380074756687    0.000000000000
 C   -0.580169283090   -4.417134756687    0.000000000000
 H    0.439690716910   -4.807254756687    0.000000000000
 C   -2.975969283090   -4.783514756687    0.000000000000
 H   -3.836529283090   -5.455744756687    0.000000000000
 C   -0.781009283090   -3.026524756687    0.000000000000
 H    0.099440716910   -2.385424756687    0.000000000000
 C   -3.190829283090   -3.395974756687    0.000000000000
 H   -4.209909283090   -2.997734756687    0.000000000000
 C   -2.093259283090   -2.526064756687    0.000000000000
 O   -2.269839283090   -1.137174756687    0.000000000000
 H   -3.220419283090   -0.948504756687    0.000000000000
 K   -0.038709283090   -0.019394756687    0.000000000000
 O    2.285877568169    1.145206450146    0.000000000000
 H    3.236455997544    0.956542134476    0.000000000000
 C    2.109299300064    2.534096697837    0.000000000000
 C    0.797043380776    3.034560687345    0.000000000000
 H   -0.083403619034    2.393454426711    0.000000000000
 C    0.596201597910    4.425172056440    0.000000000000
 H   -0.423650350389    4.815289077281    0.000000000000
 C    1.686037616952    5.309614324313    0.000000000000
 H    1.520138896640    6.388109297412    0.000000000000
 C    2.992008057893    4.791558431298    0.000000000000
 H    3.852574486348    5.463785641560    0.000000000000
 C    3.206873960071    3.404006136002    0.000000000000
 H    4.225944811787    3.005768551660    0.000000000000
