27

 C   -1.818127246097   -5.375785795259    0.000000000000
 H   -1.652227246097   -6.454285795259    0.000000000000
 C   -0.728297246097   -4.491345795259    0.000000000000
 H    0.291562753903   -4.881465795259    0.000000000000
 C   -3.124097246097   -4.857725795259    0.000000000000
 H   -3.984657246097   -5.529955795259    0.000000000000
 C   -0.929137246097   -3.100735795259    0.000000000000
 H   -0.048687246097   -2.459635795259    0.000000000000
 C   -3.338957246097   -3.470185795259    0.000000000000
 H   -4.358037246097   -3.071945795259    0.000000000000
 C   -2.241387246097   -2.600275795259    0.000000000000
 O   -2.417967246097   -1.211385795259    0.000000000000
 H   -3.368547246097   -1.022715795259    0.000000000000
 K   -0.186837246097   -0.093605795259    0.000000000000
 O    2.495378351509    1.250164828009    0.000000000000
 H    3.445956780884    1.061500512340    0.000000000000
 C    2.318800083404    2.639055075701    0.000000000000
 C    1.006544164117    3.139519065209    0.000000000000
 H    0.126097164306    2.498412804574    0.000000000000
 C    0.805702381251    4.530130434303    0.000000000000
 H   -0.214149567048    4.920247455144    0.000000000000
 C    1.895538400292    5.414572702176    0.000000000000
 H    1.729639679980    6.493067675275    0.000000000000
 C    3.201508841234    4.896516809162    0.000000000000
 H    4.062075269689    5.568744019423    0.000000000000
 C    3.416374743411    3.508964513866    0.000000000000
 H    4.435445595127    3.110726929524    0.000000000000
