27

 C   -1.855159236848   -5.394338554902    0.000000000000
 H   -1.689259236848   -6.472838554902    0.000000000000
 C   -0.765329236848   -4.509898554902    0.000000000000
 H    0.254530763152   -4.900018554902    0.000000000000
 C   -3.161129236848   -4.876278554902    0.000000000000
 H   -4.021689236848   -5.548508554902    0.000000000000
 C   -0.966169236848   -3.119288554902    0.000000000000
 H   -0.085719236848   -2.478188554902    0.000000000000
 C   -3.375989236848   -3.488738554902    0.000000000000
 H   -4.395069236848   -3.090498554902    0.000000000000
 C   -2.278419236848   -2.618828554902    0.000000000000
 O   -2.454999236848   -1.229938554902    0.000000000000
 H   -3.405579236848   -1.041268554902    0.000000000000
 K   -0.223869236848   -0.112158554902    0.000000000000
 O    2.547753547345    1.276404422475    0.000000000000
 H    3.498331976720    1.087740106806    0.000000000000
 C    2.371175279240    2.665294670167    0.000000000000
 C    1.058919359952    3.165758659675    0.000000000000
 H    0.178472360141    2.524652399040    0.000000000000
 C    0.858077577086    4.556370028769    0.000000000000
 H   -0.161774371213    4.946487049610    0.000000000000
 C    1.947913596128    5.440812296642    0.000000000000
 H    1.782014875816    6.519307269741    0.000000000000
 C    3.253884037069    4.922756403628    0.000000000000
 H    4.114450465524    5.594983613889    0.000000000000
 C    3.468749939247    3.535204108332    0.000000000000
 H    4.487820790963    3.136966523989    0.000000000000
