27

 C   -1.929223218352   -5.431444074188    0.000000000000
 H   -1.763323218352   -6.509944074188    0.000000000000
 C   -0.839393218352   -4.547004074188    0.000000000000
 H    0.180466781648   -4.937124074188    0.000000000000
 C   -3.235193218352   -4.913384074188    0.000000000000
 H   -4.095753218352   -5.585614074188    0.000000000000
 C   -1.040233218352   -3.156394074188    0.000000000000
 H   -0.159783218352   -2.515294074188    0.000000000000
 C   -3.450053218352   -3.525844074188    0.000000000000
 H   -4.469133218352   -3.127604074188    0.000000000000
 C   -2.352483218352   -2.655934074188    0.000000000000
 O   -2.529063218352   -1.267044074188    0.000000000000
 H   -3.479643218352   -1.078374074188    0.000000000000
 K   -0.297933218352   -0.149264074188    0.000000000000
 O    2.652503939015    1.328883611407    0.000000000000
 H    3.603082368390    1.140219295737    0.000000000000
 C    2.475925670910    2.717773859098    0.000000000000
 C    1.163669751622    3.218237848606    0.000000000000
 H    0.283222751812    2.577131587972    0.000000000000
 C    0.962827968757    4.608849217701    0.000000000000
 H   -0.057023979543    4.998966238542    0.000000000000
 C    2.052663987798    5.493291485574    0.000000000000
 H    1.886765267486    6.571786458673    0.000000000000
 C    3.358634428739    4.975235592559    0.000000000000
 H    4.219200857195    5.647462802821    0.000000000000
 C    3.573500330917    3.587683297263    0.000000000000
 H    4.592571182633    3.189445712921    0.000000000000
