27

 C   -2.151415162862   -5.542760632047    0.000000000000
 H   -1.985515162862   -6.621260632047    0.000000000000
 C   -1.061585162862   -4.658320632047    0.000000000000
 H   -0.041725162862   -5.048440632047    0.000000000000
 C   -3.457385162862   -5.024700632047    0.000000000000
 H   -4.317945162862   -5.696930632047    0.000000000000
 C   -1.262425162862   -3.267710632047    0.000000000000
 H   -0.381975162862   -2.626610632047    0.000000000000
 C   -3.672245162862   -3.637160632047    0.000000000000
 H   -4.691325162862   -3.238920632047    0.000000000000
 C   -2.574675162862   -2.767250632047    0.000000000000
 O   -2.751255162862   -1.378360632047    0.000000000000
 H   -3.701835162862   -1.189690632047    0.000000000000
 K   -0.520125162862   -0.260580632047    0.000000000000
 O    2.966755114026    1.486321178202    0.000000000000
 H    3.917333543401    1.297656862533    0.000000000000
 C    2.790176845921    2.875211425894    0.000000000000
 C    1.477920926633    3.375675415402    0.000000000000
 H    0.597473926823    2.734569154767    0.000000000000
 C    1.277079143768    4.766286784496    0.000000000000
 H    0.257227195468    5.156403805337    0.000000000000
 C    2.366915162809    5.650729052369    0.000000000000
 H    2.201016442497    6.729224025468    0.000000000000
 C    3.672885603750    5.132673159355    0.000000000000
 H    4.533452032206    5.804900369616    0.000000000000
 C    3.887751505928    3.745120864059    0.000000000000
 H    4.906822357644    3.346883279716    0.000000000000
