27

 C   -2.188447153614   -5.561313391690    0.000000000000
 H   -2.022547153614   -6.639813391690    0.000000000000
 C   -1.098617153614   -4.676873391690    0.000000000000
 H   -0.078757153614   -5.066993391690    0.000000000000
 C   -3.494417153614   -5.043253391690    0.000000000000
 H   -4.354977153614   -5.715483391690    0.000000000000
 C   -1.299457153614   -3.286263391690    0.000000000000
 H   -0.419007153614   -2.645163391690    0.000000000000
 C   -3.709277153614   -3.655713391690    0.000000000000
 H   -4.728357153614   -3.257473391690    0.000000000000
 C   -2.611707153614   -2.785803391690    0.000000000000
 O   -2.788287153614   -1.396913391690    0.000000000000
 H   -3.738867153614   -1.208243391690    0.000000000000
 K   -0.557157153614   -0.279133391690    0.000000000000
 O    3.019130309861    1.512560772668    0.000000000000
 H    3.969708739236    1.323896456999    0.000000000000
 C    2.842552041756    2.901451020360    0.000000000000
 C    1.530296122468    3.401915009867    0.000000000000
 H    0.649849122658    2.760808749233    0.000000000000
 C    1.329454339603    4.792526378962    0.000000000000
 H    0.309602391303    5.182643399803    0.000000000000
 C    2.419290358644    5.676968646835    0.000000000000
 H    2.253391638332    6.755463619934    0.000000000000
 C    3.725260799586    5.158912753820    0.000000000000
 H    4.585827228041    5.831139964082    0.000000000000
 C    3.940126701763    3.771360458524    0.000000000000
 H    4.959197553479    3.373122874182    0.000000000000
