27

 C   -2.262511135117   -5.598418910976    0.000000000000
 H   -2.096611135117   -6.676918910976    0.000000000000
 C   -1.172681135117   -4.713978910976    0.000000000000
 H   -0.152821135117   -5.104098910976    0.000000000000
 C   -3.568481135117   -5.080358910976    0.000000000000
 H   -4.429041135117   -5.752588910976    0.000000000000
 C   -1.373521135117   -3.323368910976    0.000000000000
 H   -0.493071135117   -2.682268910976    0.000000000000
 C   -3.783341135117   -3.692818910976    0.000000000000
 H   -4.802421135117   -3.294578910976    0.000000000000
 C   -2.685771135117   -2.822908910976    0.000000000000
 O   -2.862351135117   -1.434018910976    0.000000000000
 H   -3.812931135117   -1.245348910976    0.000000000000
 K   -0.631221135117   -0.316238910976    0.000000000000
 O    3.123880701531    1.565039961600    0.000000000000
 H    4.074459130906    1.376375645930    0.000000000000
 C    2.947302433426    2.953930209291    0.000000000000
 C    1.635046514139    3.454394198799    0.000000000000
 H    0.754599514328    2.813287938165    0.000000000000
 C    1.434204731273    4.845005567894    0.000000000000
 H    0.414352782974    5.235122588735    0.000000000000
 C    2.524040750314    5.729447835767    0.000000000000
 H    2.358142030003    6.807942808865    0.000000000000
 C    3.830011191256    5.211391942752    0.000000000000
 H    4.690577619711    5.883619153014    0.000000000000
 C    4.044877093433    3.823839647456    0.000000000000
 H    5.063947945149    3.425602063114    0.000000000000
