27

 C   -2.558767061131   -5.746840988120    0.000000000000
 H   -2.392867061131   -6.825340988120    0.000000000000
 C   -1.468937061131   -4.862400988120    0.000000000000
 H   -0.449077061131   -5.252520988120    0.000000000000
 C   -3.864737061131   -5.228780988120    0.000000000000
 H   -4.725297061131   -5.901010988120    0.000000000000
 C   -1.669777061131   -3.471790988120    0.000000000000
 H   -0.789327061131   -2.830690988120    0.000000000000
 C   -4.079597061131   -3.841240988120    0.000000000000
 H   -5.098677061131   -3.443000988120    0.000000000000
 C   -2.982027061131   -2.971330988120    0.000000000000
 O   -3.158607061131   -1.582440988120    0.000000000000
 H   -4.109187061131   -1.393770988120    0.000000000000
 K   -0.927477061131   -0.464660988120    0.000000000000
 O    3.542882268213    1.774956717327    0.000000000000
 H    4.493460697588    1.586292401657    0.000000000000
 C    3.366304000108    3.163846965018    0.000000000000
 C    2.054048080820    3.664310954526    0.000000000000
 H    1.173601081010    3.023204693891    0.000000000000
 C    1.853206297954    5.054922323621    0.000000000000
 H    0.833354349655    5.445039344462    0.000000000000
 C    2.943042316996    5.939364591494    0.000000000000
 H    2.777143596684    7.017859564592    0.000000000000
 C    4.249012757937    5.421308698479    0.000000000000
 H    5.109579186392    6.093535908741    0.000000000000
 C    4.463878660115    4.033756403183    0.000000000000
 H    5.482949511831    3.635518818841    0.000000000000
