27

 C   -2.595799051882   -5.765393747763    0.000000000000
 H   -2.429899051882   -6.843893747763    0.000000000000
 C   -1.505969051882   -4.880953747763    0.000000000000
 H   -0.486109051882   -5.271073747763    0.000000000000
 C   -3.901769051882   -5.247333747763    0.000000000000
 H   -4.762329051882   -5.919563747763    0.000000000000
 C   -1.706809051882   -3.490343747763    0.000000000000
 H   -0.826359051882   -2.849243747763    0.000000000000
 C   -4.116629051882   -3.859793747763    0.000000000000
 H   -5.135709051882   -3.461553747763    0.000000000000
 C   -3.019059051882   -2.989883747763    0.000000000000
 O   -3.195639051882   -1.600993747763    0.000000000000
 H   -4.146219051882   -1.412323747763    0.000000000000
 K   -0.964509051882   -0.483213747763    0.000000000000
 O    3.595257464048    1.801196311792    0.000000000000
 H    4.545835893423    1.612531996123    0.000000000000
 C    3.418679195943    3.190086559484    0.000000000000
 C    2.106423276655    3.690550548992    0.000000000000
 H    1.225976276845    3.049444288357    0.000000000000
 C    1.905581493790    5.081161918087    0.000000000000
 H    0.885729545490    5.471278938928    0.000000000000
 C    2.995417512831    5.965604185960    0.000000000000
 H    2.829518792519    7.044099159058    0.000000000000
 C    4.301387953772    5.447548292945    0.000000000000
 H    5.161954382228    6.119775503206    0.000000000000
 C    4.516253855950    4.059995997649    0.000000000000
 H    5.535324707666    3.661758413307    0.000000000000
