27

 C   -2.743927014889   -5.839604786336    0.000000000000
 H   -2.578027014889   -6.918104786336    0.000000000000
 C   -1.654097014889   -4.955164786336    0.000000000000
 H   -0.634237014889   -5.345284786336    0.000000000000
 C   -4.049897014889   -5.321544786336    0.000000000000
 H   -4.910457014889   -5.993774786336    0.000000000000
 C   -1.854937014889   -3.564554786336    0.000000000000
 H   -0.974487014889   -2.923454786336    0.000000000000
 C   -4.264757014889   -3.934004786336    0.000000000000
 H   -5.283837014889   -3.535764786336    0.000000000000
 C   -3.167187014889   -3.064094786336    0.000000000000
 O   -3.343767014889   -1.675204786336    0.000000000000
 H   -4.294347014889   -1.486534786336    0.000000000000
 K   -1.112637014889   -0.557424786336    0.000000000000
 O    3.804758247389    1.906154689656    0.000000000000
 H    4.755336676764    1.717490373987    0.000000000000
 C    3.628179979284    3.295044937348    0.000000000000
 C    2.315924059996    3.795508926855    0.000000000000
 H    1.435477060186    3.154402666221    0.000000000000
 C    2.115082277130    5.186120295950    0.000000000000
 H    1.095230328831    5.576237316791    0.000000000000
 C    3.204918296172    6.070562563823    0.000000000000
 H    3.039019575860    7.149057536922    0.000000000000
 C    4.510888737113    5.552506670809    0.000000000000
 H    5.371455165568    6.224733881070    0.000000000000
 C    4.725754639291    4.164954375512    0.000000000000
 H    5.744825491007    3.766716791170    0.000000000000
