27

 C   -2.855022987144   -5.895263065265    0.000000000000
 H   -2.689122987144   -6.973763065265    0.000000000000
 C   -1.765192987144   -5.010823065265    0.000000000000
 H   -0.745332987144   -5.400943065265    0.000000000000
 C   -4.160992987144   -5.377203065265    0.000000000000
 H   -5.021552987144   -6.049433065265    0.000000000000
 C   -1.966032987144   -3.620213065265    0.000000000000
 H   -1.085582987144   -2.979113065265    0.000000000000
 C   -4.375852987144   -3.989663065265    0.000000000000
 H   -5.394932987144   -3.591423065265    0.000000000000
 C   -3.278282987144   -3.119753065265    0.000000000000
 O   -3.454862987144   -1.730863065265    0.000000000000
 H   -4.405442987144   -1.542193065265    0.000000000000
 K   -1.223732987144   -0.613083065265    0.000000000000
 O    3.961883834894    1.984873473054    0.000000000000
 H    4.912462264269    1.796209157384    0.000000000000
 C    3.785305566789    3.373763720745    0.000000000000
 C    2.473049647501    3.874227710253    0.000000000000
 H    1.592602647691    3.233121449618    0.000000000000
 C    2.272207864636    5.264839079348    0.000000000000
 H    1.252355916336    5.654956100189    0.000000000000
 C    3.362043883677    6.149281347221    0.000000000000
 H    3.196145163365    7.227776320319    0.000000000000
 C    4.668014324619    5.631225454206    0.000000000000
 H    5.528580753074    6.303452664467    0.000000000000
 C    4.882880226796    4.243673158910    0.000000000000
 H    5.901951078512    3.845435574568    0.000000000000
