27

 C   -2.892054977896   -5.913815824908    0.000000000000
 H   -2.726154977896   -6.992315824908    0.000000000000
 C   -1.802224977896   -5.029375824908    0.000000000000
 H   -0.782364977896   -5.419495824908    0.000000000000
 C   -4.198024977896   -5.395755824908    0.000000000000
 H   -5.058584977896   -6.067985824908    0.000000000000
 C   -2.003064977896   -3.638765824908    0.000000000000
 H   -1.122614977896   -2.997665824908    0.000000000000
 C   -4.412884977896   -4.008215824908    0.000000000000
 H   -5.431964977896   -3.609975824908    0.000000000000
 C   -3.315314977896   -3.138305824908    0.000000000000
 O   -3.491894977896   -1.749415824908    0.000000000000
 H   -4.442474977896   -1.560745824908    0.000000000000
 K   -1.260764977896   -0.631635824908    0.000000000000
 O    4.014259030729    2.011113067519    0.000000000000
 H    4.964837460104    1.822448751850    0.000000000000
 C    3.837680762624    3.400003315211    0.000000000000
 C    2.525424843337    3.900467304719    0.000000000000
 H    1.644977843526    3.259361044084    0.000000000000
 C    2.324583060471    5.291078673814    0.000000000000
 H    1.304731112172    5.681195694655    0.000000000000
 C    3.414419079512    6.175520941687    0.000000000000
 H    3.248520359200    7.254015914785    0.000000000000
 C    4.720389520454    5.657465048672    0.000000000000
 H    5.580955948909    6.329692258933    0.000000000000
 C    4.935255422631    4.269912753376    0.000000000000
 H    5.954326274347    3.871675169034    0.000000000000
