27

 C   -2.929086968648   -5.932368584551    0.000000000000
 H   -2.763186968648   -7.010868584551    0.000000000000
 C   -1.839256968648   -5.047928584551    0.000000000000
 H   -0.819396968648   -5.438048584551    0.000000000000
 C   -4.235056968648   -5.414308584551    0.000000000000
 H   -5.095616968648   -6.086538584551    0.000000000000
 C   -2.040096968648   -3.657318584551    0.000000000000
 H   -1.159646968648   -3.016218584551    0.000000000000
 C   -4.449916968648   -4.026768584551    0.000000000000
 H   -5.468996968648   -3.628528584551    0.000000000000
 C   -3.352346968648   -3.156858584551    0.000000000000
 O   -3.528926968648   -1.767968584551    0.000000000000
 H   -4.479506968648   -1.579298584551    0.000000000000
 K   -1.297796968648   -0.650188584551    0.000000000000
 O    4.066634226564    2.037352661985    0.000000000000
 H    5.017212655939    1.848688346316    0.000000000000
 C    3.890055958459    3.426242909677    0.000000000000
 C    2.577800039172    3.926706899185    0.000000000000
 H    1.697353039361    3.285600638550    0.000000000000
 C    2.376958256306    5.317318268280    0.000000000000
 H    1.357106308007    5.707435289121    0.000000000000
 C    3.466794275347    6.201760536152    0.000000000000
 H    3.300895555036    7.280255509251    0.000000000000
 C    4.772764716289    5.683704643138    0.000000000000
 H    5.633331144744    6.355931853399    0.000000000000
 C    4.987630618466    4.296152347842    0.000000000000
 H    6.006701470182    3.897914763500    0.000000000000
