27

 C   -3.077214931655   -6.006579623123    0.000000000000
 H   -2.911314931655   -7.085079623123    0.000000000000
 C   -1.987384931655   -5.122139623123    0.000000000000
 H   -0.967524931655   -5.512259623123    0.000000000000
 C   -4.383184931655   -5.488519623123    0.000000000000
 H   -5.243744931655   -6.160749623123    0.000000000000
 C   -2.188224931655   -3.731529623123    0.000000000000
 H   -1.307774931655   -3.090429623123    0.000000000000
 C   -4.598044931655   -4.100979623123    0.000000000000
 H   -5.617124931655   -3.702739623123    0.000000000000
 C   -3.500474931655   -3.231069623123    0.000000000000
 O   -3.677054931655   -1.842179623123    0.000000000000
 H   -4.627634931655   -1.653509623123    0.000000000000
 K   -1.445924931655   -0.724399623123    0.000000000000
 O    4.276135009905    2.142311039849    0.000000000000
 H    5.226713439280    1.953646724179    0.000000000000
 C    4.099556741800    3.531201287540    0.000000000000
 C    2.787300822512    4.031665277048    0.000000000000
 H    1.906853822702    3.390559016414    0.000000000000
 C    2.586459039647    5.422276646143    0.000000000000
 H    1.566607091347    5.812393666984    0.000000000000
 C    3.676295058688    6.306718914016    0.000000000000
 H    3.510396338376    7.385213887115    0.000000000000
 C    4.982265499630    5.788663021001    0.000000000000
 H    5.842831928085    6.460890231263    0.000000000000
 C    5.197131401807    4.401110725705    0.000000000000
 H    6.216202253523    4.002873141363    0.000000000000
