27

 C   -3.262374885413   -6.099343421339    0.000000000000
 H   -3.096474885413   -7.177843421339    0.000000000000
 C   -2.172544885413   -5.214903421339    0.000000000000
 H   -1.152684885413   -5.605023421339    0.000000000000
 C   -4.568344885413   -5.581283421339    0.000000000000
 H   -5.428904885413   -6.253513421339    0.000000000000
 C   -2.373384885413   -3.824293421339    0.000000000000
 H   -1.492934885413   -3.183193421339    0.000000000000
 C   -4.783204885413   -4.193743421339    0.000000000000
 H   -5.802284885413   -3.795503421339    0.000000000000
 C   -3.685634885413   -3.323833421339    0.000000000000
 O   -3.862214885413   -1.934943421339    0.000000000000
 H   -4.812794885413   -1.746273421339    0.000000000000
 K   -1.631084885413   -0.817163421339    0.000000000000
 O    4.538010989081    2.273509012178    0.000000000000
 H    5.488589418456    2.084844696509    0.000000000000
 C    4.361432720976    3.662399259870    0.000000000000
 C    3.049176801688    4.162863249378    0.000000000000
 H    2.168729801878    3.521756988743    0.000000000000
 C    2.848335018823    5.553474618472    0.000000000000
 H    1.828483070523    5.943591639313    0.000000000000
 C    3.938171037864    6.437916886345    0.000000000000
 H    3.772272317552    7.516411859444    0.000000000000
 C    5.244141478805    5.919860993331    0.000000000000
 H    6.104707907261    6.592088203592    0.000000000000
 C    5.459007380983    4.532308698035    0.000000000000
 H    6.478078232699    4.134071113692    0.000000000000
