27

 C   -3.336438866917   -6.136448940625    0.000000000000
 H   -3.170538866917   -7.214948940625    0.000000000000
 C   -2.246608866917   -5.252008940625    0.000000000000
 H   -1.226748866917   -5.642128940625    0.000000000000
 C   -4.642408866917   -5.618388940625    0.000000000000
 H   -5.502968866917   -6.290618940625    0.000000000000
 C   -2.447448866917   -3.861398940625    0.000000000000
 H   -1.566998866917   -3.220298940625    0.000000000000
 C   -4.857268866917   -4.230848940625    0.000000000000
 H   -5.876348866917   -3.832608940625    0.000000000000
 C   -3.759698866917   -3.360938940625    0.000000000000
 O   -3.936278866917   -1.972048940625    0.000000000000
 H   -4.886858866917   -1.783378940625    0.000000000000
 K   -1.705148866917   -0.854268940625    0.000000000000
 O    4.642761380751    2.325988201110    0.000000000000
 H    5.593339810126    2.137323885440    0.000000000000
 C    4.466183112646    3.714878448801    0.000000000000
 C    3.153927193359    4.215342438309    0.000000000000
 H    2.273480193548    3.574236177675    0.000000000000
 C    2.953085410493    5.605953807404    0.000000000000
 H    1.933233462194    5.996070828245    0.000000000000
 C    4.042921429534    6.490396075277    0.000000000000
 H    3.877022709222    7.568891048376    0.000000000000
 C    5.348891870476    5.972340182262    0.000000000000
 H    6.209458298931    6.644567392524    0.000000000000
 C    5.563757772653    4.584787886966    0.000000000000
 H    6.582828624369    4.186550302624    0.000000000000
