27

 C   -3.410502848420   -6.173554459911    0.000000000000
 H   -3.244602848420   -7.252054459911    0.000000000000
 C   -2.320672848420   -5.289114459911    0.000000000000
 H   -1.300812848420   -5.679234459911    0.000000000000
 C   -4.716472848420   -5.655494459911    0.000000000000
 H   -5.577032848420   -6.327724459911    0.000000000000
 C   -2.521512848420   -3.898504459911    0.000000000000
 H   -1.641062848420   -3.257404459911    0.000000000000
 C   -4.931332848420   -4.267954459911    0.000000000000
 H   -5.950412848420   -3.869714459911    0.000000000000
 C   -3.833762848420   -3.398044459911    0.000000000000
 O   -4.010342848420   -2.009154459911    0.000000000000
 H   -4.960922848420   -1.820484459911    0.000000000000
 K   -1.779212848420   -0.891374459911    0.000000000000
 O    4.747511772422    2.378467390042    0.000000000000
 H    5.698090201797    2.189803074372    0.000000000000
 C    4.570933504317    3.767357637733    0.000000000000
 C    3.258677585029    4.267821627241    0.000000000000
 H    2.378230585219    3.626715366606    0.000000000000
 C    3.057835802163    5.658432996336    0.000000000000
 H    2.037983853864    6.048550017177    0.000000000000
 C    4.147671821205    6.542875264209    0.000000000000
 H    3.981773100893    7.621370237307    0.000000000000
 C    5.453642262146    6.024819371194    0.000000000000
 H    6.314208690601    6.697046581455    0.000000000000
 C    5.668508164324    4.637267075898    0.000000000000
 H    6.687579016040    4.239029491556    0.000000000000
