27

 C   -3.447534839172   -6.192107219554    0.000000000000
 H   -3.281634839172   -7.270607219554    0.000000000000
 C   -2.357704839172   -5.307667219554    0.000000000000
 H   -1.337844839172   -5.697787219554    0.000000000000
 C   -4.753504839172   -5.674047219554    0.000000000000
 H   -5.614064839172   -6.346277219554    0.000000000000
 C   -2.558544839172   -3.917057219554    0.000000000000
 H   -1.678094839172   -3.275957219554    0.000000000000
 C   -4.968364839172   -4.286507219554    0.000000000000
 H   -5.987444839172   -3.888267219554    0.000000000000
 C   -3.870794839172   -3.416597219554    0.000000000000
 O   -4.047374839172   -2.027707219554    0.000000000000
 H   -4.997954839172   -1.839037219554    0.000000000000
 K   -1.816244839172   -0.909927219554    0.000000000000
 O    4.799886968257    2.404706984507    0.000000000000
 H    5.750465397632    2.216042668838    0.000000000000
 C    4.623308700152    3.793597232199    0.000000000000
 C    3.311052780864    4.294061221707    0.000000000000
 H    2.430605781054    3.652954961072    0.000000000000
 C    3.110210997998    5.684672590802    0.000000000000
 H    2.090359049699    6.074789611643    0.000000000000
 C    4.200047017040    6.569114858675    0.000000000000
 H    4.034148296728    7.647609831773    0.000000000000
 C    5.506017457981    6.051058965660    0.000000000000
 H    6.366583886436    6.723286175921    0.000000000000
 C    5.720883360159    4.663506670364    0.000000000000
 H    6.739954211875    4.265269086022    0.000000000000
