27

 C   -3.558630811427   -6.247765498483    0.000000000000
 H   -3.392730811427   -7.326265498483    0.000000000000
 C   -2.468800811427   -5.363325498483    0.000000000000
 H   -1.448940811427   -5.753445498483    0.000000000000
 C   -4.864600811427   -5.729705498483    0.000000000000
 H   -5.725160811427   -6.401935498483    0.000000000000
 C   -2.669640811427   -3.972715498483    0.000000000000
 H   -1.789190811427   -3.331615498483    0.000000000000
 C   -5.079460811427   -4.342165498483    0.000000000000
 H   -6.098540811427   -3.943925498483    0.000000000000
 C   -3.981890811427   -3.472255498483    0.000000000000
 O   -4.158470811427   -2.083365498483    0.000000000000
 H   -5.109050811427   -1.894695498483    0.000000000000
 K   -1.927340811427   -0.965585498483    0.000000000000
 O    4.957012555762    2.483425767905    0.000000000000
 H    5.907590985137    2.294761452236    0.000000000000
 C    4.780434287657    3.872316015597    0.000000000000
 C    3.468178368370    4.372780005105    0.000000000000
 H    2.587731368559    3.731673744470    0.000000000000
 C    3.267336585504    5.763391374199    0.000000000000
 H    2.247484637205    6.153508395040    0.000000000000
 C    4.357172604545    6.647833642072    0.000000000000
 H    4.191273884233    7.726328615171    0.000000000000
 C    5.663143045487    6.129777749058    0.000000000000
 H    6.523709473942    6.802004959319    0.000000000000
 C    5.878008947664    4.742225453762    0.000000000000
 H    6.897079799380    4.343987869419    0.000000000000
