27

 C   -3.595662802178   -6.266318258126    0.000000000000
 H   -3.429762802178   -7.344818258126    0.000000000000
 C   -2.505832802178   -5.381878258126    0.000000000000
 H   -1.485972802178   -5.771998258126    0.000000000000
 C   -4.901632802178   -5.748258258126    0.000000000000
 H   -5.762192802178   -6.420488258126    0.000000000000
 C   -2.706672802178   -3.991268258126    0.000000000000
 H   -1.826222802178   -3.350168258126    0.000000000000
 C   -5.116492802178   -4.360718258126    0.000000000000
 H   -6.135572802178   -3.962478258126    0.000000000000
 C   -4.018922802178   -3.490808258126    0.000000000000
 O   -4.195502802178   -2.101918258126    0.000000000000
 H   -5.146082802178   -1.913248258126    0.000000000000
 K   -1.964372802178   -0.984138258126    0.000000000000
 O    5.009387751597    2.509665362371    0.000000000000
 H    5.959966180972    2.321001046702    0.000000000000
 C    4.832809483493    3.898555610063    0.000000000000
 C    3.520553564205    4.399019599570    0.000000000000
 H    2.640106564394    3.757913338936    0.000000000000
 C    3.319711781339    5.789630968665    0.000000000000
 H    2.299859833040    6.179747989506    0.000000000000
 C    4.409547800380    6.674073236538    0.000000000000
 H    4.243649080069    7.752568209637    0.000000000000
 C    5.715518241322    6.156017343523    0.000000000000
 H    6.576084669777    6.828244553785    0.000000000000
 C    5.930384143499    4.768465048227    0.000000000000
 H    6.949454995215    4.370227463885    0.000000000000
