27

 C   -3.632694792930   -6.284871017769    0.000000000000
 H   -3.466794792930   -7.363371017769    0.000000000000
 C   -2.542864792930   -5.400431017769    0.000000000000
 H   -1.523004792930   -5.790551017769    0.000000000000
 C   -4.938664792930   -5.766811017769    0.000000000000
 H   -5.799224792930   -6.439041017769    0.000000000000
 C   -2.743704792930   -4.009821017769    0.000000000000
 H   -1.863254792930   -3.368721017769    0.000000000000
 C   -5.153524792930   -4.379271017769    0.000000000000
 H   -6.172604792930   -3.981031017769    0.000000000000
 C   -4.055954792930   -3.509361017769    0.000000000000
 O   -4.232534792930   -2.120471017769    0.000000000000
 H   -5.183114792930   -1.931801017769    0.000000000000
 K   -2.001404792930   -1.002691017769    0.000000000000
 O    5.061762947433    2.535904956837    0.000000000000
 H    6.012341376808    2.347240641167    0.000000000000
 C    4.885184679328    3.924795204528    0.000000000000
 C    3.572928760040    4.425259194036    0.000000000000
 H    2.692481760230    3.784152933402    0.000000000000
 C    3.372086977174    5.815870563131    0.000000000000
 H    2.352235028875    6.205987583972    0.000000000000
 C    4.461922996216    6.700312831004    0.000000000000
 H    4.296024275904    7.778807804103    0.000000000000
 C    5.767893437157    6.182256937989    0.000000000000
 H    6.628459865612    6.854484148251    0.000000000000
 C    5.982759339335    4.794704642693    0.000000000000
 H    7.001830191051    4.396467058351    0.000000000000
