27

 C   -3.780822755937   -6.359082056342    0.000000000000
 H   -3.614922755937   -7.437582056342    0.000000000000
 C   -2.690992755937   -5.474642056342    0.000000000000
 H   -1.671132755937   -5.864762056342    0.000000000000
 C   -5.086792755937   -5.841022056342    0.000000000000
 H   -5.947352755937   -6.513252056342    0.000000000000
 C   -2.891832755937   -4.084032056342    0.000000000000
 H   -2.011382755937   -3.442932056342    0.000000000000
 C   -5.301652755937   -4.453482056342    0.000000000000
 H   -6.320732755937   -4.055242056342    0.000000000000
 C   -4.204082755937   -3.583572056342    0.000000000000
 O   -4.380662755937   -2.194682056342    0.000000000000
 H   -5.331242755937   -2.006012056342    0.000000000000
 K   -2.149532755937   -1.076902056342    0.000000000000
 O    5.271263730773    2.640863334700    0.000000000000
 H    6.221842160148    2.452199019031    0.000000000000
 C    5.094685462668    4.029753582392    0.000000000000
 C    3.782429543381    4.530217571900    0.000000000000
 H    2.901982543570    3.889111311265    0.000000000000
 C    3.581587760515    5.920828940994    0.000000000000
 H    2.561735812216    6.310945961835    0.000000000000
 C    4.671423779556    6.805271208867    0.000000000000
 H    4.505525059244    7.883766181966    0.000000000000
 C    5.977394220498    6.287215315853    0.000000000000
 H    6.837960648953    6.959442526114    0.000000000000
 C    6.192260122675    4.899663020557    0.000000000000
 H    7.211330974391    4.501425436215    0.000000000000
