27

 C   -3.817854746689   -6.377634815985    0.000000000000
 H   -3.651954746689   -7.456134815985    0.000000000000
 C   -2.728024746689   -5.493194815985    0.000000000000
 H   -1.708164746689   -5.883314815985    0.000000000000
 C   -5.123824746689   -5.859574815985    0.000000000000
 H   -5.984384746689   -6.531804815985    0.000000000000
 C   -2.928864746689   -4.102584815985    0.000000000000
 H   -2.048414746689   -3.461484815985    0.000000000000
 C   -5.338684746689   -4.472034815985    0.000000000000
 H   -6.357764746689   -4.073794815985    0.000000000000
 C   -4.241114746689   -3.602124815985    0.000000000000
 O   -4.417694746689   -2.213234815985    0.000000000000
 H   -5.368274746689   -2.024564815985    0.000000000000
 K   -2.186564746689   -1.095454815985    0.000000000000
 O    5.323638926608    2.667102929166    0.000000000000
 H    6.274217355983    2.478438613497    0.000000000000
 C    5.147060658504    4.055993176858    0.000000000000
 C    3.834804739216    4.556457166366    0.000000000000
 H    2.954357739405    3.915350905731    0.000000000000
 C    3.633962956350    5.947068535460    0.000000000000
 H    2.614111008051    6.337185556301    0.000000000000
 C    4.723798975391    6.831510803333    0.000000000000
 H    4.557900255080    7.910005776432    0.000000000000
 C    6.029769416333    6.313454910319    0.000000000000
 H    6.890335844788    6.985682120580    0.000000000000
 C    6.244635318510    4.925902615023    0.000000000000
 H    7.263706170226    4.527665030680    0.000000000000
