27

 C   -3.854886737440   -6.396187575628    0.000000000000
 H   -3.688986737440   -7.474687575628    0.000000000000
 C   -2.765056737440   -5.511747575628    0.000000000000
 H   -1.745196737440   -5.901867575628    0.000000000000
 C   -5.160856737440   -5.878127575628    0.000000000000
 H   -6.021416737440   -6.550357575628    0.000000000000
 C   -2.965896737440   -4.121137575628    0.000000000000
 H   -2.085446737440   -3.480037575628    0.000000000000
 C   -5.375716737440   -4.490587575628    0.000000000000
 H   -6.394796737440   -4.092347575628    0.000000000000
 C   -4.278146737440   -3.620677575628    0.000000000000
 O   -4.454726737440   -2.231787575628    0.000000000000
 H   -5.405306737440   -2.043117575628    0.000000000000
 K   -2.223596737440   -1.114007575628    0.000000000000
 O    5.376014122444    2.693342523632    0.000000000000
 H    6.326592551819    2.504678207963    0.000000000000
 C    5.199435854339    4.082232771324    0.000000000000
 C    3.887179935051    4.582696760832    0.000000000000
 H    3.006732935241    3.941590500197    0.000000000000
 C    3.686338152185    5.973308129926    0.000000000000
 H    2.666486203886    6.363425150767    0.000000000000
 C    4.776174171227    6.857750397799    0.000000000000
 H    4.610275450915    7.936245370898    0.000000000000
 C    6.082144612168    6.339694504785    0.000000000000
 H    6.942711040623    7.011921715046    0.000000000000
 C    6.297010514346    4.952142209488    0.000000000000
 H    7.316081366062    4.553904625146    0.000000000000
