27

 C   -3.891918728192   -6.414740335271    0.000000000000
 H   -3.726018728192   -7.493240335271    0.000000000000
 C   -2.802088728192   -5.530300335271    0.000000000000
 H   -1.782228728192   -5.920420335271    0.000000000000
 C   -5.197888728192   -5.896680335271    0.000000000000
 H   -6.058448728192   -6.568910335271    0.000000000000
 C   -3.002928728192   -4.139690335271    0.000000000000
 H   -2.122478728192   -3.498590335271    0.000000000000
 C   -5.412748728192   -4.509140335271    0.000000000000
 H   -6.431828728192   -4.110900335271    0.000000000000
 C   -4.315178728192   -3.639230335271    0.000000000000
 O   -4.491758728192   -2.250340335271    0.000000000000
 H   -5.442338728192   -2.061670335271    0.000000000000
 K   -2.260628728192   -1.132560335271    0.000000000000
 O    5.428389318279    2.719582118098    0.000000000000
 H    6.378967747654    2.530917802429    0.000000000000
 C    5.251811050174    4.108472365789    0.000000000000
 C    3.939555130886    4.608936355297    0.000000000000
 H    3.059108131076    3.967830094663    0.000000000000
 C    3.738713348020    5.999547724392    0.000000000000
 H    2.718861399721    6.389664745233    0.000000000000
 C    4.828549367062    6.883989992265    0.000000000000
 H    4.662650646750    7.962484965364    0.000000000000
 C    6.134519808003    6.365934099250    0.000000000000
 H    6.995086236458    7.038161309512    0.000000000000
 C    6.349385710181    4.978381803954    0.000000000000
 H    7.368456561897    4.580144219612    0.000000000000
