27

 C   -4.114110672702   -6.526056893129    0.000000000000
 H   -3.948210672702   -7.604556893129    0.000000000000
 C   -3.024280672702   -5.641616893129    0.000000000000
 H   -2.004420672702   -6.031736893129    0.000000000000
 C   -5.420080672702   -6.007996893129    0.000000000000
 H   -6.280640672702   -6.680226893129    0.000000000000
 C   -3.225120672702   -4.251006893129    0.000000000000
 H   -2.344670672702   -3.609906893129    0.000000000000
 C   -5.634940672702   -4.620456893129    0.000000000000
 H   -6.654020672702   -4.222216893129    0.000000000000
 C   -4.537370672702   -3.750546893129    0.000000000000
 O   -4.713950672702   -2.361656893129    0.000000000000
 H   -5.664530672702   -2.172986893129    0.000000000000
 K   -2.482820672702   -1.243876893129    0.000000000000
 O    5.742640493290    2.877019684893    0.000000000000
 H    6.693218922665    2.688355369224    0.000000000000
 C    5.566062225185    4.265909932585    0.000000000000
 C    4.253806305897    4.766373922093    0.000000000000
 H    3.373359306087    4.125267661458    0.000000000000
 C    4.052964523031    6.156985291187    0.000000000000
 H    3.033112574732    6.547102312028    0.000000000000
 C    5.142800542073    7.041427559060    0.000000000000
 H    4.976901821761    8.119922532159    0.000000000000
 C    6.448770983014    6.523371666046    0.000000000000
 H    7.309337411469    7.195598876307    0.000000000000
 C    6.663636885192    5.135819370750    0.000000000000
 H    7.682707736908    4.737581786407    0.000000000000
