27

 C   -4.151142663454   -6.544609652772    0.000000000000
 H   -3.985242663454   -7.623109652772    0.000000000000
 C   -3.061312663454   -5.660169652772    0.000000000000
 H   -2.041452663454   -6.050289652772    0.000000000000
 C   -5.457112663454   -6.026549652772    0.000000000000
 H   -6.317672663454   -6.698779652772    0.000000000000
 C   -3.262152663454   -4.269559652772    0.000000000000
 H   -2.381702663454   -3.628459652772    0.000000000000
 C   -5.671972663454   -4.639009652772    0.000000000000
 H   -6.691052663454   -4.240769652772    0.000000000000
 C   -4.574402663454   -3.769099652772    0.000000000000
 O   -4.750982663454   -2.380209652772    0.000000000000
 H   -5.701562663454   -2.191539652772    0.000000000000
 K   -2.519852663454   -1.262429652772    0.000000000000
 O    5.795015689125    2.903259279359    0.000000000000
 H    6.745594118500    2.714594963690    0.000000000000
 C    5.618437421020    4.292149527051    0.000000000000
 C    4.306181501732    4.792613516558    0.000000000000
 H    3.425734501922    4.151507255924    0.000000000000
 C    4.105339718867    6.183224885653    0.000000000000
 H    3.085487770567    6.573341906494    0.000000000000
 C    5.195175737908    7.067667153526    0.000000000000
 H    5.029277017596    8.146162126625    0.000000000000
 C    6.501146178849    6.549611260512    0.000000000000
 H    7.361712607305    7.221838470773    0.000000000000
 C    6.716012081027    5.162058965215    0.000000000000
 H    7.735082932743    4.763821380873    0.000000000000
