27

 C   -4.299270626461   -6.618820691345    0.000000000000
 H   -4.133370626461   -7.697320691345    0.000000000000
 C   -3.209440626461   -5.734380691345    0.000000000000
 H   -2.189580626461   -6.124500691345    0.000000000000
 C   -5.605240626461   -6.100760691345    0.000000000000
 H   -6.465800626461   -6.772990691345    0.000000000000
 C   -3.410280626461   -4.343770691345    0.000000000000
 H   -2.529830626461   -3.702670691345    0.000000000000
 C   -5.820100626461   -4.713220691345    0.000000000000
 H   -6.839180626461   -4.314980691345    0.000000000000
 C   -4.722530626461   -3.843310691345    0.000000000000
 O   -4.899110626461   -2.454420691345    0.000000000000
 H   -5.849690626461   -2.265750691345    0.000000000000
 K   -2.667980626461   -1.336640691345    0.000000000000
 O    6.004516472466    3.008217657222    0.000000000000
 H    6.955094901841    2.819553341553    0.000000000000
 C    5.827938204361    4.397107904914    0.000000000000
 C    4.515682285073    4.897571894422    0.000000000000
 H    3.635235285263    4.256465633787    0.000000000000
 C    4.314840502207    6.288183263517    0.000000000000
 H    3.294988553908    6.678300284358    0.000000000000
 C    5.404676521249    7.172625531390    0.000000000000
 H    5.238777800937    8.251120504488    0.000000000000
 C    6.710646962190    6.654569638375    0.000000000000
 H    7.571213390645    7.326796848636    0.000000000000
 C    6.925512864368    5.267017343079    0.000000000000
 H    7.944583716084    4.868779758737    0.000000000000
