16

 N   -1.213153461864    2.067441822290    0.054254678620
 C    0.157461950545    2.266916500131    0.050623044244
 H    0.479246246883    3.310661431007    0.072041859937
 C   -1.812868731293    0.814326662737    0.029724687964
 O   -3.030642762825    0.647383956670    0.030720768738
 N   -0.887562715682   -0.222450947105    0.002068150975
 H   -1.282136423545   -1.160965256954   -0.018440722423
 C    0.518167662713   -0.136412234787   -0.006379899816
 O    1.206488335141   -1.160029456589   -0.034487838369
 C    1.047936843778    1.231976633947    0.022226469318
 C    2.540226737384    1.415834959409    0.017395659492
 H    2.801774366464    2.484262836277    0.040049827639
 H    2.980371050974    0.957514739987   -0.881712591954
 H    2.991231944093    0.917348474103    0.889332496405
 H   -1.855459685193    2.851694860464    0.074150096910
 K    0.590798698368   -2.417154448187   -0.058216021370
