16

 N   -1.078152762456    2.343088419168    0.059457496906
 C    0.292462649953    2.542563097009    0.055825862530
 H    0.614246946291    3.586308027885    0.077244678223
 C   -1.677868031885    1.089973259615    0.034927506250
 O   -2.895642063417    0.923030553548    0.035923587024
 N   -0.752562016274    0.053195649773    0.007270969261
 H   -1.147135724137   -0.885318660076   -0.013237904137
 C    0.653168362121    0.139234362091   -0.001177081530
 O    1.341489034549   -0.884382859711   -0.029285020083
 C    1.182937543186    1.507623230825    0.027429287604
 C    2.675227436792    1.691481556287    0.022598477778
 H    2.936775065872    2.759909433155    0.045252645925
 H    3.115371750382    1.233161336865   -0.876509773668
 H    3.126232643501    1.192995070981    0.894535314691
 H   -1.720458985785    3.127341457342    0.079352915196
 K    0.154087592201   -3.308838200651   -0.075046515869
