16

 N   -1.036614085715    2.427902756669    0.061058364071
 C    0.334001326694    2.627377434510    0.057426729695
 H    0.655785623032    3.671122365386    0.078845545388
 C   -1.636329355144    1.174787597116    0.036528373415
 O   -2.854103386676    1.007844891049    0.037524454189
 N   -0.711023339533    0.138009987274    0.008871836426
 H   -1.105597047396   -0.800504322575   -0.011637036972
 C    0.694707038862    0.224048699592    0.000423785635
 O    1.383027711290   -0.799568522210   -0.027684152918
 C    1.224476219927    1.592437568326    0.029030154769
 C    2.716766113533    1.776295893788    0.024199344943
 H    2.978313742613    2.844723770656    0.046853513090
 H    3.156910427123    1.317975674366   -0.874908906503
 H    3.167771320242    1.277809408482    0.896136181856
 H   -1.678920309044    3.212155794843    0.080953782361
 K    0.019714944149   -3.583202432179   -0.080225129562
