16

 N   -1.026229416530    2.449106341044    0.061458580862
 C    0.344385995879    2.648581018885    0.057826946486
 H    0.666170292217    3.692325949761    0.079245762179
 C   -1.625944685959    1.195991181491    0.036928590206
 O   -2.843718717491    1.029048475424    0.037924670980
 N   -0.700638670348    0.159213571649    0.009272053217
 H   -1.095212378211   -0.779300738200   -0.011236820181
 C    0.705091708047    0.245252283967    0.000824002426
 O    1.393412380475   -0.778364937835   -0.027283936127
 C    1.234860889112    1.613641152701    0.029430371560
 C    2.727150782718    1.797499478163    0.024599561734
 H    2.988698411798    2.865927355031    0.047253729881
 H    3.167295096308    1.339179258741   -0.874508689712
 H    3.178155989427    1.299012992857    0.896536398647
 H   -1.668535639859    3.233359379218    0.081353999152
 K   -0.013878217863   -3.651793490060   -0.081519782985
