16

 N   -1.005460078159    2.491513509794    0.062259014444
 C    0.365155334250    2.690988187635    0.058627380068
 H    0.686939630588    3.734733118511    0.080046195761
 C   -1.605175347588    1.238398350241    0.037729023788
 O   -2.822949379120    1.071455644174    0.038725104562
 N   -0.679869331977    0.201620740399    0.010072486799
 H   -1.074443039840   -0.736893569450   -0.010436386599
 C    0.725861046418    0.287659452717    0.001624436008
 O    1.414181718846   -0.735957769085   -0.026483502545
 C    1.255630227483    1.656048321451    0.030230805142
 C    2.747920121089    1.839906646913    0.025399995316
 H    3.009467750169    2.908334523781    0.048054163463
 H    3.188064434679    1.381586427491   -0.873708256130
 H    3.198925327798    1.341420161607    0.897336832229
 H   -1.647766301488    3.275766547968    0.082154432734
 K   -0.081064541889   -3.788975605824   -0.084109089831
