16

 N   -0.953536732233    2.597531431670    0.064260098400
 C    0.417078680176    2.797006109511    0.060628464024
 H    0.738862976514    3.840751040387    0.082047279717
 C   -1.553252001662    1.344416272117    0.039730107744
 O   -2.771026033194    1.177473566050    0.040726188518
 N   -0.627945986051    0.307638662275    0.012073570755
 H   -1.022519693914   -0.630875647574   -0.008435302643
 C    0.777784392344    0.393677374593    0.003625519964
 O    1.466105064772   -0.629939847209   -0.024482418589
 C    1.307553573409    1.762066243327    0.032231889098
 C    2.799843467015    1.945924568789    0.027401079272
 H    3.061391096095    3.014352445657    0.050055247419
 H    3.239987780605    1.487604349367   -0.871707172174
 H    3.250848673724    1.447438083483    0.899337916185
 H   -1.595842955562    3.381784469844    0.084155516690
 K   -0.249030351953   -4.131930895233   -0.090582356946
