16

 N   -0.880844047936    2.745956522297    0.067061615939
 C    0.489771364473    2.945431200138    0.063429981563
 H    0.811555660811    3.989176131014    0.084848797256
 C   -1.480559317365    1.492841362744    0.042531625283
 O   -2.698333348897    1.325898656677    0.043527706057
 N   -0.555253301754    0.456063752902    0.014875088294
 H   -0.949827009617   -0.482450556947   -0.005633785104
 C    0.850477076641    0.542102465220    0.006427037503
 O    1.538797749069   -0.481514756582   -0.021680901050
 C    1.380246257706    1.910491333954    0.035033406637
 C    2.872536151312    2.094349659416    0.030202596811
 H    3.134083780392    3.162777536284    0.052856764958
 H    3.312680464902    1.636029439994   -0.868905654635
 H    3.323541358021    1.595863174110    0.902139433724
 H   -1.523150271265    3.530209560471    0.086957034229
 K   -0.484182486043   -4.612068300406   -0.099644930908
