16

 N   -0.870459378751    2.767160106672    0.067461832730
 C    0.500156033658    2.966634784513    0.063830198354
 H    0.821940329996    4.010379715389    0.085249014047
 C   -1.470174648180    1.514044947119    0.042931842074
 O   -2.687948679712    1.347102241052    0.043927922848
 N   -0.544868632569    0.477267337277    0.015275305085
 H   -0.939442340432   -0.461246972572   -0.005233568313
 C    0.860861745826    0.563306049595    0.006827254294
 O    1.549182418254   -0.460311172207   -0.021280684259
 C    1.390630926891    1.931694918329    0.035433623428
 C    2.882920820497    2.115553243791    0.030602813602
 H    3.144468449577    3.183981120659    0.053256981749
 H    3.323065134087    1.657233024369   -0.868505437844
 H    3.333926027206    1.617066758485    0.902539650515
 H   -1.512765602080    3.551413144846    0.087357251020
 K   -0.517775648056   -4.680659358288   -0.100939584331
