16

 N   -0.860074709566    2.788363691047    0.067862049521
 C    0.510540702843    2.987838368888    0.064230415145
 H    0.832324999181    4.031583299764    0.085649230838
 C   -1.459789978995    1.535248531494    0.043332058865
 O   -2.677564010527    1.368305825427    0.044328139639
 N   -0.534483963384    0.498470921652    0.015675521876
 H   -0.929057671247   -0.440043388197   -0.004833351522
 C    0.871246415011    0.584509633970    0.007227471085
 O    1.559567087439   -0.439107587832   -0.020880467468
 C    1.401015596076    1.952898502704    0.035833840219
 C    2.893305489682    2.136756828166    0.031003030393
 H    3.154853118762    3.205184705034    0.053657198540
 H    3.333449803272    1.678436608744   -0.868105221053
 H    3.344310696391    1.638270342860    0.902939867306
 H   -1.502380932895    3.572616729221    0.087757467811
 K   -0.551368810069   -4.749250416170   -0.102234237754
