16

 N   -0.839305371195    2.830770859797    0.068662483104
 C    0.531310041214    3.030245537638    0.065030848728
 H    0.853094337552    4.073990468514    0.086449664421
 C   -1.439020640624    1.577655700244    0.044132492448
 O   -2.656794672156    1.410712994177    0.045128573222
 N   -0.513714625013    0.540878090402    0.016475955459
 H   -0.908288332876   -0.397636219447   -0.004032917939
 C    0.892015753382    0.626916802720    0.008027904668
 O    1.580336425810   -0.396700419082   -0.020080033885
 C    1.421784934447    1.995305671454    0.036634273802
 C    2.914074828053    2.179163996916    0.031803463976
 H    3.175622457133    3.247591873784    0.054457632123
 H    3.354219141643    1.720843777494   -0.867304787470
 H    3.365080034762    1.680677511610    0.903740300889
 H   -1.481611594524    3.615023897971    0.088557901394
 K   -0.618555134094   -4.886432531934   -0.104823544600
