16

 N   -0.818536032825    2.873178028548    0.069462916686
 C    0.552079379584    3.072652706389    0.065831282310
 H    0.873863675922    4.116397637265    0.087250098003
 C   -1.418251302254    1.620062868995    0.044932926030
 O   -2.636025333786    1.453120162928    0.045929006804
 N   -0.492945286643    0.583285259153    0.017276389041
 H   -0.887518994506   -0.355229050696   -0.003232484357
 C    0.912785091752    0.669323971471    0.008828338250
 O    1.601105764180   -0.354293250331   -0.019279600303
 C    1.442554272817    2.037712840205    0.037434707384
 C    2.934844166423    2.221571165667    0.032603897558
 H    3.196391795503    3.289999042535    0.055258065705
 H    3.374988480013    1.763250946245   -0.866504353888
 H    3.385849373132    1.723084680361    0.904540734471
 H   -1.460842256154    3.657431066722    0.089358334976
 K   -0.685741458120   -5.023614647697   -0.107412851446
