16

 N   -0.808151363640    2.894381612923    0.069863133478
 C    0.562464048769    3.093856290764    0.066231499102
 H    0.884248345107    4.137601221640    0.087650314795
 C   -1.407866633069    1.641266453370    0.045333142822
 O   -2.625640664601    1.474323747303    0.046329223596
 N   -0.482560617458    0.604488843528    0.017676605833
 H   -0.877134325321   -0.334025466321   -0.002832267565
 C    0.923169760937    0.690527555846    0.009228555042
 O    1.611490433365   -0.333089665956   -0.018879383511
 C    1.452938942002    2.058916424580    0.037834924176
 C    2.945228835608    2.242774750042    0.033004114350
 H    3.206776464688    3.311202626910    0.055658282497
 H    3.385373149198    1.784454530620   -0.866104137096
 H    3.396234042317    1.744288264736    0.904940951263
 H   -1.450457586969    3.678634651097    0.089758551768
 K   -0.719334620133   -5.092205705579   -0.108707504869
