16

 N   -0.766612686899    2.979195950424    0.071464000643
 C    0.604002725510    3.178670628265    0.067832366267
 H    0.925787021848    4.222415559141    0.089251181960
 C   -1.366327956328    1.726080790871    0.046934009987
 O   -2.584101987860    1.559138084804    0.047930090761
 N   -0.441021940717    0.689303181029    0.019277472998
 H   -0.835595648580   -0.249211128820   -0.001231400400
 C    0.964708437678    0.775341893347    0.010829422207
 O    1.653029110106   -0.248275328455   -0.017278516346
 C    1.494477618743    2.143730762081    0.039435791341
 C    2.986767512349    2.327589087543    0.034604981515
 H    3.248315141429    3.396016964411    0.057259149662
 H    3.426911825939    1.869268868121   -0.864503269931
 H    3.437772719058    1.829102602237    0.906541818428
 H   -1.408918910228    3.763448988598    0.091359418933
 K   -0.853707268184   -5.366569937107   -0.113886118561
