16

 N   -0.725074010158    3.064010287925    0.073064867807
 C    0.645541402251    3.263484965766    0.069433233431
 H    0.967325698589    4.307229896642    0.090852049124
 C   -1.324789279587    1.810895128372    0.048534877151
 O   -2.542563311119    1.643952422305    0.049530957925
 N   -0.399483263976    0.774117518530    0.020878340162
 H   -0.794056971839   -0.164396791319    0.000369466764
 C    1.006247114419    0.860156230848    0.012430289371
 O    1.694567786847   -0.163460990954   -0.015677649182
 C    1.536016295484    2.228545099582    0.041036658505
 C    3.028306189090    2.412403425044    0.036205848679
 H    3.289853818170    3.480831301912    0.058860016826
 H    3.468450502680    1.954083205622   -0.862902402767
 H    3.479311395799    1.913916939738    0.908142685592
 H   -1.367380233487    3.848263326099    0.092960286097
 K   -0.988079916236   -5.640934168634   -0.119064732254
