16

 N   -0.714689340973    3.085213872300    0.073465084599
 C    0.655926071436    3.284688550141    0.069833450223
 H    0.977710367774    4.328433481017    0.091252265916
 C   -1.314404610402    1.832098712747    0.048935093943
 O   -2.532178641934    1.665156006680    0.049931174717
 N   -0.389098594791    0.795321102905    0.021278556954
 H   -0.783672302654   -0.143193206944    0.000769683556
 C    1.016631783604    0.881359815223    0.012830506163
 O    1.704952456032   -0.142257406579   -0.015277432390
 C    1.546400964669    2.249748683957    0.041436875297
 C    3.038690858275    2.433607009419    0.036606065471
 H    3.300238487355    3.502034886287    0.059260233618
 H    3.478835171865    1.975286789997   -0.862502185975
 H    3.489696064984    1.935120524113    0.908542902384
 H   -1.356995564302    3.869466910474    0.093360502889
 K   -1.021673078248   -5.709525226516   -0.120359385677
