16

 N   -0.693920002602    3.127621041050    0.074265518181
 C    0.676695409807    3.327095718891    0.070633883805
 H    0.998479706145    4.370840649767    0.092052699498
 C   -1.293635272031    1.874505881497    0.049735527525
 O   -2.511409303563    1.707563175430    0.050731608299
 N   -0.368329256420    0.837728271655    0.022078990536
 H   -0.762902964283   -0.100786038194    0.001570117138
 C    1.037401121975    0.923766983973    0.013630939745
 O    1.725721794403   -0.099850237829   -0.014476998808
 C    1.567170303040    2.292155852707    0.042237308879
 C    3.059460196646    2.476014178169    0.037406499053
 H    3.321007825726    3.544442055037    0.060060667200
 H    3.499604510236    2.017693958747   -0.861701752393
 H    3.510465403355    1.977527692863    0.909343335966
 H   -1.336226225931    3.911874079224    0.094160936471
 K   -1.088859402274   -5.846707342279   -0.122948692523
