16

 N   -0.673150664232    3.170028209801    0.075065951764
 C    0.697464748177    3.369502887642    0.071434317388
 H    1.019249044515    4.413247818518    0.092853133081
 C   -1.272865933661    1.916913050248    0.050535961108
 O   -2.490639965193    1.749970344181    0.051532041882
 N   -0.347559918050    0.880135440406    0.022879424119
 H   -0.742133625913   -0.058378869443    0.002370550721
 C    1.058170460345    0.966174152724    0.014431373328
 O    1.746491132773   -0.057443069078   -0.013676565225
 C    1.587939641410    2.334563021458    0.043037742462
 C    3.080229535016    2.518421346920    0.038206932636
 H    3.341777164096    3.586849223788    0.060861100783
 H    3.520373848606    2.060101127498   -0.860901318810
 H    3.531234741725    2.019934861614    0.910143769549
 H   -1.315456887561    3.954281247975    0.094961370054
 K   -1.156045726300   -5.983889458043   -0.125537999369
