16

 N   -0.652381325861    3.212435378551    0.075866385346
 C    0.718234086548    3.411910056392    0.072234750970
 H    1.040018382886    4.455654987268    0.093653566663
 C   -1.252096595290    1.959320218998    0.051336394690
 O   -2.469870626822    1.792377512931    0.052332475464
 N   -0.326790579679    0.922542609156    0.023679857701
 H   -0.721364287542   -0.015971700693    0.003170984303
 C    1.078939798716    1.008581321474    0.015231806910
 O    1.767260471144   -0.015035900328   -0.012876131643
 C    1.608708979781    2.376970190208    0.043838176044
 C    3.100998873387    2.560828515670    0.039007366218
 H    3.362546502467    3.629256392538    0.061661534365
 H    3.541143186977    2.102508296248   -0.860100885228
 H    3.552004080096    2.062342030364    0.910944203131
 H   -1.294687549190    3.996688416725    0.095761803636
 K   -1.223232050325   -6.121071573807   -0.128127306215
