16

 N   -0.621227318305    3.276046131677    0.077067035720
 C    0.749388094104    3.475520809518    0.073435401344
 H    1.071172390442    4.519265740394    0.094854217037
 C   -1.220942587734    2.022930972124    0.052537045064
 O   -2.438716619266    1.855988266057    0.053533125838
 N   -0.295636572123    0.986153362282    0.024880508075
 H   -0.690210279986    0.047639052433    0.004371634677
 C    1.110093806272    1.072192074600    0.016432457284
 O    1.798414478700    0.048574852798   -0.011675481269
 C    1.639862987337    2.440580943334    0.045038826418
 C    3.132152880943    2.624439268796    0.040208016592
 H    3.393700510023    3.692867145664    0.062862184739
 H    3.572297194533    2.166119049374   -0.858900234854
 H    3.583158087652    2.125952783490    0.912144853505
 H   -1.263533541634    4.060299169851    0.096962454010
 K   -1.324011536364   -6.326844747452   -0.132011266484
