16

 N   -0.600457979935    3.318453300427    0.077867469302
 C    0.770157432474    3.517927978268    0.074235834926
 H    1.091941728812    4.561672909144    0.095654650619
 C   -1.200173249364    2.065338140874    0.053337478646
 O   -2.417947280896    1.898395434807    0.054333559420
 N   -0.274867233753    1.028560531032    0.025680941657
 H   -0.669440941616    0.090046221183    0.005172068259
 C    1.130863144642    1.114599243350    0.017232890866
 O    1.819183817070    0.090982021548   -0.010875047687
 C    1.660632325707    2.482988112084    0.045839260000
 C    3.152922219313    2.666846437546    0.041008450174
 H    3.414469848393    3.735274314414    0.063662618321
 H    3.593066532903    2.208526218124   -0.858099801272
 H    3.603927426022    2.168359952240    0.912945287087
 H   -1.242764203264    4.102706338601    0.097762887592
 K   -1.391197860390   -6.464026863216   -0.134600573330
