16

 N   -0.569303972379    3.382064053553    0.079068119676
 C    0.801311440030    3.581538731394    0.075436485300
 H    1.123095736368    4.625283662270    0.096855300993
 C   -1.169019241808    2.128948894000    0.054538129020
 O   -2.386793273340    1.962006187933    0.055534209794
 N   -0.243713226197    1.092171284158    0.026881592031
 H   -0.638286934060    0.153656974309    0.006372718633
 C    1.162017152198    1.178209996476    0.018433541240
 O    1.850337824626    0.154592774674   -0.009674397313
 C    1.691786333263    2.546598865210    0.047039910374
 C    3.184076226869    2.730457190672    0.042209100548
 H    3.445623855949    3.798885067540    0.064863268695
 H    3.624220540459    2.272136971250   -0.856899150898
 H    3.635081433578    2.231970705366    0.914145937461
 H   -1.211610195708    4.166317091727    0.098963537966
 K   -1.491977346428   -6.669800036862   -0.138484533600
