16

 N   -0.548534634009    3.424471222303    0.079868553258
 C    0.822080778400    3.623945900144    0.076236918882
 H    1.143865074738    4.667690831020    0.097655734575
 C   -1.148249903438    2.171356062750    0.055338562602
 O   -2.366023934970    2.004413356683    0.056334643376
 N   -0.222943887827    1.134578452908    0.027682025613
 H   -0.617517595690    0.196064143059    0.007173152215
 C    1.182786490568    1.220617165226    0.019233974822
 O    1.871107162996    0.196999943424   -0.008873963731
 C    1.712555671633    2.589006033960    0.047840343956
 C    3.204845565239    2.772864359422    0.043009534130
 H    3.466393194319    3.841292236290    0.065663702277
 H    3.644989878829    2.314544140000   -0.856098717316
 H    3.655850771948    2.274377874116    0.914946371043
 H   -1.190840857338    4.208724260477    0.099763971548
 K   -1.559163670454   -6.806982152625   -0.141073840446
