16

 N   -0.538149964823    3.445674806678    0.080268770050
 C    0.832465447586    3.645149484519    0.076637135674
 H    1.154249743924    4.688894415395    0.098055951367
 C   -1.137865234252    2.192559647125    0.055738779394
 O   -2.355639265784    2.025616941058    0.056734860168
 N   -0.212559218641    1.155782037283    0.028082242405
 H   -0.607132926504    0.217267727434    0.007573369007
 C    1.193171159754    1.241820749601    0.019634191614
 O    1.881491832182    0.218203527799   -0.008473746939
 C    1.722940340819    2.610209618335    0.048240560748
 C    3.215230234425    2.794067943797    0.043409750922
 H    3.476777863505    3.862495820665    0.066063919069
 H    3.655374548015    2.335747724375   -0.855698500524
 H    3.666235441134    2.295581458491    0.915346587835
 H   -1.180456188152    4.229927844852    0.100164188340
 K   -1.592756832467   -6.875573210507   -0.142368493869
