16

 N   -0.517380626453    3.488081975428    0.081069203632
 C    0.853234785956    3.687556653269    0.077437569256
 H    1.175019082294    4.731301584145    0.098856384949
 C   -1.117095895882    2.234966815875    0.056539212976
 O   -2.334869927414    2.068024109808    0.057535293750
 N   -0.191789880271    1.198189206033    0.028882675987
 H   -0.586363588134    0.259674896184    0.008373802589
 C    1.213940498124    1.284227918351    0.020434625196
 O    1.902261170552    0.260610696549   -0.007673313357
 C    1.743709679189    2.652616787085    0.049040994330
 C    3.235999572795    2.836475112547    0.044210184504
 H    3.497547201875    3.904902989415    0.066864352651
 H    3.676143886385    2.378154893125   -0.854898066942
 H    3.687004779504    2.337988627241    0.916147021417
 H   -1.159686849782    4.272335013602    0.100964621922
 K   -1.659943156492   -7.012755326271   -0.144957800715
