16

 N   -0.506995957268    3.509285559804    0.081469420423
 C    0.863619455141    3.708760237645    0.077837786047
 H    1.185403751479    4.752505168521    0.099256601740
 C   -1.106711226697    2.256170400251    0.056939429767
 O   -2.324485258229    2.089227694184    0.057935510541
 N   -0.181405211086    1.219392790409    0.029282892778
 H   -0.575978918949    0.280878480560    0.008774019380
 C    1.224325167309    1.305431502727    0.020834841987
 O    1.912645839737    0.281814280925   -0.007273096566
 C    1.754094348374    2.673820371461    0.049441211121
 C    3.246384241980    2.857678696923    0.044610401295
 H    3.507931871060    3.926106573791    0.067264569442
 H    3.686528555570    2.399358477501   -0.854497850151
 H    3.697389448689    2.359192211617    0.916547238208
 H   -1.149302180597    4.293538597978    0.101364838713
 K   -1.693536318505   -7.081346384153   -0.146252454138
