16

 N   -0.455072611341    3.615303481680    0.083470504379
 C    0.915542801068    3.814778159521    0.079838870003
 H    1.237327097406    4.858523090397    0.101257685696
 C   -1.054787880770    2.362188322127    0.058940513723
 O   -2.272561912302    2.195245616060    0.059936594497
 N   -0.129481865159    1.325410712285    0.031283976734
 H   -0.524055573022    0.386896402436    0.010775103336
 C    1.276248513236    1.411449424603    0.022835925943
 O    1.964569185664    0.387832202801   -0.005272012610
 C    1.806017694301    2.779838293337    0.051442295077
 C    3.298307587907    2.963696618799    0.046611485251
 H    3.559855216987    4.032124495667    0.069265653398
 H    3.738451901497    2.505376399377   -0.852496766195
 H    3.749312794616    2.465210133493    0.918548322164
 H   -1.097378834670    4.399556519854    0.103365922669
 K   -1.861502128569   -7.424301673562   -0.152725721253
