16

 N   -0.444687942156    3.636507066055    0.083870721171
 C    0.925927470253    3.835981743896    0.080239086795
 H    1.247711766591    4.879726674772    0.101657902488
 C   -1.044403211585    2.383391906502    0.059340730515
 O   -2.262177243117    2.216449200435    0.060336811289
 N   -0.119097195974    1.346614296660    0.031684193526
 H   -0.513670903837    0.408099986811    0.011175320128
 C    1.286633182421    1.432653008978    0.023236142735
 O    1.974953854849    0.409035787176   -0.004871795818
 C    1.816402363486    2.801041877712    0.051842511869
 C    3.308692257092    2.984900203174    0.047011702043
 H    3.570239886172    4.053328080042    0.069665870190
 H    3.748836570682    2.526579983752   -0.852096549403
 H    3.759697463801    2.486413717868    0.918948538956
 H   -1.086994165485    4.420760104229    0.103766139461
 K   -1.895095290582   -7.492892731444   -0.154020374676
