16

 N   -0.371995257860    3.784932156681    0.086672238709
 C    0.998620154549    3.984406834522    0.083040604333
 H    1.320404450887    5.028151765398    0.104459420026
 C   -0.971710527289    2.531816997128    0.062142248053
 O   -2.189484558821    2.364874291061    0.063138328827
 N   -0.046404511678    1.495039387286    0.034485711064
 H   -0.440978219541    0.556525077437    0.013976837666
 C    1.359325866717    1.581078099604    0.026037660273
 O    2.047646539145    0.557460877802   -0.002070278280
 C    1.889095047782    2.949466968338    0.054644029407
 C    3.381384941388    3.133325293800    0.049813219581
 H    3.642932570468    4.201753170668    0.072467387728
 H    3.821529254978    2.675005074378   -0.849295031865
 H    3.832390148097    2.634838808494    0.921750056494
 H   -1.014301481189    4.569185194855    0.106567656999
 K   -2.130247424672   -7.973030136617   -0.163082948638
