16

 N   -0.330456581119    3.869746494182    0.088273105874
 C    1.040158831290    4.069221172023    0.084641471498
 H    1.361943127628    5.112966102899    0.106060287191
 C   -0.930171850548    2.616631334629    0.063743115218
 O   -2.147945882080    2.449688628562    0.064739195992
 N   -0.004865834937    1.579853724787    0.036086578229
 H   -0.399439542800    0.641339414938    0.015577704831
 C    1.400864543458    1.665892437105    0.027638527438
 O    2.089185215886    0.642275215303   -0.000469411115
 C    1.930633724523    3.034281305839    0.056244896572
 C    3.422923618129    3.218139631301    0.051414086746
 H    3.684471247209    4.286567508169    0.074068254893
 H    3.863067931719    2.759819411879   -0.847694164700
 H    3.873928824838    2.719653145995    0.923350923659
 H   -0.972762804448    4.653999532356    0.108168524164
 K   -2.264620072723   -8.247394368144   -0.168261562330
