8

 C    1.299740830348   -1.385132401664    0.000000000000
 H    2.335240830348   -1.761220401664    0.000000000000
 H    0.766540830348   -1.765835401664    0.888337000000
 H    0.766540830348   -1.765835401664   -0.888337000000
 C    1.257974830348    0.170951598336    0.000000000000
 O    0.090778830348    0.677174598336    0.000000000000
 O    2.382045830348    0.766369598336    0.000000000000
RB   -0.873186158406   -0.037508198755    0.000000000000
