8

 C    1.394526238187   -1.314858583437    0.000000000000
 H    2.430026238187   -1.690946583437    0.000000000000
 H    0.861326238187   -1.695561583437    0.888337000000
 H    0.861326238187   -1.695561583437   -0.888337000000
 C    1.352760238187    0.241225416563    0.000000000000
 O    0.185564238187    0.747448416563    0.000000000000
 O    2.476831238187    0.836643416563    0.000000000000
RB   -0.939061582026   -0.086348180042    0.000000000000
