8

 C    1.441918942106   -1.279721674323    0.000000000000
 H    2.477418942106   -1.655809674323    0.000000000000
 H    0.908718942106   -1.660424674323    0.888337000000
 H    0.908718942106   -1.660424674323   -0.888337000000
 C    1.400152942106    0.276362325677    0.000000000000
 O    0.232956942106    0.782585325677    0.000000000000
 O    2.524223942106    0.871780325677    0.000000000000
RB   -0.971999293836   -0.110768170686    0.000000000000
