8

 C    1.489311646025   -1.244584765210    0.000000000000
 H    2.524811646025   -1.620672765210    0.000000000000
 H    0.956111646025   -1.625287765210    0.888337000000
 H    0.956111646025   -1.625287765210   -0.888337000000
 C    1.447545646025    0.311499234790    0.000000000000
 O    0.280349646025    0.817722234790    0.000000000000
 O    2.571616646025    0.906917234790    0.000000000000
RB   -1.004937005647   -0.135188161330    0.000000000000
