8

 C    1.631489757783   -1.139174037868    0.000000000000
 H    2.666989757783   -1.515262037868    0.000000000000
 H    1.098289757783   -1.519877037868    0.888337000000
 H    1.098289757783   -1.519877037868   -0.888337000000
 C    1.589723757783    0.416909962132    0.000000000000
 O    0.422527757783    0.923132962132    0.000000000000
 O    2.713794757783    1.012327962132    0.000000000000
RB   -1.103750141077   -0.208448133262    0.000000000000
