8

 C    5.470298775238    1.706915600343    0.000000000000
 H    6.505798775238    1.330827600343    0.000000000000
 H    4.937098775238    1.326212600343    0.888337000000
 H    4.937098775238    1.326212600343   -0.888337000000
 C    5.428532775238    3.262999600343    0.000000000000
 O    4.261336775238    3.769222600343    0.000000000000
 O    6.552603775238    3.858417600343    0.000000000000
RB   -3.771704797710   -2.186467375410    0.000000000000
