8

 C    2.105416796975   -0.787804946731    0.000000000000
 H    3.140916796975   -1.163892946731    0.000000000000
 H    1.572216796975   -1.168507946731    0.888337000000
 H    1.572216796975   -1.168507946731   -0.888337000000
 C    2.063650796975    0.768279053269    0.000000000000
 O    0.896454796975    1.274502053269    0.000000000000
 O    3.187721796975    1.363697053269    0.000000000000
RB   -1.433127259180   -0.452648039700    0.000000000000
