8

 C    2.200202204813   -0.717531128504    0.000000000000
 H    3.235702204813   -1.093619128504    0.000000000000
 H    1.667002204813   -1.098234128504    0.888337000000
 H    1.667002204813   -1.098234128504   -0.888337000000
 C    2.158436204813    0.838552871496    0.000000000000
 O    0.991240204813    1.344775871496    0.000000000000
 O    3.282507204813    1.433970871496    0.000000000000
RB   -1.499002682801   -0.501488020987    0.000000000000
