8

 C    2.294987612651   -0.647257310276    0.000000000000
 H    3.330487612651   -1.023345310276    0.000000000000
 H    1.761787612651   -1.027960310276    0.888337000000
 H    1.761787612651   -1.027960310276   -0.888337000000
 C    2.253221612651    0.908826689724    0.000000000000
 O    1.086025612651    1.415049689724    0.000000000000
 O    3.377292612651    1.504244689724    0.000000000000
RB   -1.564878106421   -0.550328002275    0.000000000000
