8

 C    2.389773020490   -0.576983492049    0.000000000000
 H    3.425273020490   -0.953071492049    0.000000000000
 H    1.856573020490   -0.957686492049    0.888337000000
 H    1.856573020490   -0.957686492049   -0.888337000000
 C    2.348007020490    0.979100507951    0.000000000000
 O    1.180811020490    1.485323507951    0.000000000000
 O    3.472078020490    1.574518507951    0.000000000000
RB   -1.630753530042   -0.599167983563    0.000000000000
