8

 C    2.437165724409   -0.541846582935    0.000000000000
 H    3.472665724409   -0.917934582935    0.000000000000
 H    1.903965724409   -0.922549582935    0.888337000000
 H    1.903965724409   -0.922549582935   -0.888337000000
 C    2.395399724409    1.014237417065    0.000000000000
 O    1.228203724409    1.520460417065    0.000000000000
 O    3.519470724409    1.609655417065    0.000000000000
RB   -1.663691241852   -0.623587974206    0.000000000000
