8

 C    2.484558428328   -0.506709673821    0.000000000000
 H    3.520058428328   -0.882797673821    0.000000000000
 H    1.951358428328   -0.887412673821    0.888337000000
 H    1.951358428328   -0.887412673821   -0.888337000000
 C    2.442792428328    1.049374326179    0.000000000000
 O    1.275596428328    1.555597326179    0.000000000000
 O    3.566863428328    1.644792326179    0.000000000000
RB   -1.696628953662   -0.648007964850    0.000000000000
