8

 C    2.579343836167   -0.436435855594    0.000000000000
 H    3.614843836167   -0.812523855594    0.000000000000
 H    2.046143836167   -0.817138855594    0.888337000000
 H    2.046143836167   -0.817138855594   -0.888337000000
 C    2.537577836167    1.119648144406    0.000000000000
 O    1.370381836167    1.625871144406    0.000000000000
 O    3.661648836167    1.715066144406    0.000000000000
RB   -1.762504377283   -0.696847946138    0.000000000000
