8

 C    2.626736540086   -0.401298946480    0.000000000000
 H    3.662236540086   -0.777386946480    0.000000000000
 H    2.093536540086   -0.782001946480    0.888337000000
 H    2.093536540086   -0.782001946480   -0.888337000000
 C    2.584970540086    1.154785053520    0.000000000000
 O    1.417774540086    1.661008053520    0.000000000000
 O    3.709041540086    1.750203053520    0.000000000000
RB   -1.795442089093   -0.721267936782    0.000000000000
