8

 C    2.674129244005   -0.366162037366    0.000000000000
 H    3.709629244005   -0.742250037366    0.000000000000
 H    2.140929244005   -0.746865037366    0.888337000000
 H    2.140929244005   -0.746865037366   -0.888337000000
 C    2.632363244005    1.189921962634    0.000000000000
 O    1.465167244005    1.696144962634    0.000000000000
 O    3.756434244005    1.785339962634    0.000000000000
RB   -1.828379800904   -0.745687927425    0.000000000000
