8

 C    2.768914651843   -0.295888219139    0.000000000000
 H    3.804414651843   -0.671976219139    0.000000000000
 H    2.235714651843   -0.676591219139    0.888337000000
 H    2.235714651843   -0.676591219139   -0.888337000000
 C    2.727148651843    1.260195780861    0.000000000000
 O    1.559952651843    1.766418780861    0.000000000000
 O    3.851219651843    1.855613780861    0.000000000000
RB   -1.894255224524   -0.794527908713    0.000000000000
