8

 C    2.863700059682   -0.225614400911    0.000000000000
 H    3.899200059682   -0.601702400911    0.000000000000
 H    2.330500059682   -0.606317400911    0.888337000000
 H    2.330500059682   -0.606317400911   -0.888337000000
 C    2.821934059682    1.330469599089    0.000000000000
 O    1.654738059682    1.836692599089    0.000000000000
 O    3.946005059682    1.925887599089    0.000000000000
RB   -1.960130648145   -0.843367890001    0.000000000000
