8

 C    3.148056283197   -0.014792946229    0.000000000000
 H    4.183556283197   -0.390880946229    0.000000000000
 H    2.614856283197   -0.395495946229    0.888337000000
 H    2.614856283197   -0.395495946229   -0.888337000000
 C    3.106290283197    1.541291053771    0.000000000000
 O    1.939094283197    2.047514053771    0.000000000000
 O    4.230361283197    2.136709053771    0.000000000000
RB   -2.157756919006   -0.989887833863    0.000000000000
