8

 C    3.195448987116    0.020343962885    0.000000000000
 H    4.230948987116   -0.355744037115    0.000000000000
 H    2.662248987116   -0.360359037115    0.888337000000
 H    2.662248987116   -0.360359037115   -0.888337000000
 C    3.153682987116    1.576427962885    0.000000000000
 O    1.986486987116    2.082650962885    0.000000000000
 O    4.277753987116    2.171845962885    0.000000000000
RB   -2.190694630817   -1.014307824507    0.000000000000
