8

 C    3.242841691035    0.055480871998    0.000000000000
 H    4.278341691035   -0.320607128002    0.000000000000
 H    2.709641691035   -0.325222128002    0.888337000000
 H    2.709641691035   -0.325222128002   -0.888337000000
 C    3.201075691035    1.611564871998    0.000000000000
 O    2.033879691035    2.117787871998    0.000000000000
 O    4.325146691035    2.206982871998    0.000000000000
RB   -2.223632342627   -1.038727815151    0.000000000000
