8

 C    3.290234394955    0.090617781112    0.000000000000
 H    4.325734394955   -0.285470218888    0.000000000000
 H    2.757034394955   -0.290085218888    0.888337000000
 H    2.757034394955   -0.290085218888   -0.888337000000
 C    3.248468394955    1.646701781112    0.000000000000
 O    2.081272394955    2.152924781112    0.000000000000
 O    4.372539394955    2.242119781112    0.000000000000
RB   -2.256570054437   -1.063147805795    0.000000000000
