8

 C    3.385019802793    0.160891599339    0.000000000000
 H    4.420519802793   -0.215196400661    0.000000000000
 H    2.851819802793   -0.219811400661    0.888337000000
 H    2.851819802793   -0.219811400661   -0.888337000000
 C    3.343253802793    1.716975599339    0.000000000000
 O    2.176057802793    2.223198599339    0.000000000000
 O    4.467324802793    2.312393599339    0.000000000000
RB   -2.322445478058   -1.111987787083    0.000000000000
