8

 C    3.479805210631    0.231165417567    0.000000000000
 H    4.515305210631   -0.144922582433    0.000000000000
 H    2.946605210631   -0.149537582433    0.888337000000
 H    2.946605210631   -0.149537582433   -0.888337000000
 C    3.438039210631    1.787249417567    0.000000000000
 O    2.270843210631    2.293472417567    0.000000000000
 O    4.562110210631    2.382667417567    0.000000000000
RB   -2.388320901678   -1.160827768370    0.000000000000
