8

 C    3.621983322389    0.336576144908    0.000000000000
 H    4.657483322389   -0.039511855092    0.000000000000
 H    3.088783322389   -0.044126855092    0.888337000000
 H    3.088783322389   -0.044126855092   -0.888337000000
 C    3.580217322389    1.892660144908    0.000000000000
 O    2.413021322389    2.398883144908    0.000000000000
 O    4.704288322389    2.488078144908    0.000000000000
RB   -2.487134037109   -1.234087740302    0.000000000000
