8

 C    3.669376026308    0.371713054022    0.000000000000
 H    4.704876026308   -0.004374945978    0.000000000000
 H    3.136176026308   -0.008989945978    0.888337000000
 H    3.136176026308   -0.008989945978   -0.888337000000
 C    3.627610026308    1.927797054022    0.000000000000
 O    2.460414026308    2.434020054022    0.000000000000
 O    4.751681026308    2.523215054022    0.000000000000
RB   -2.520071748919   -1.258507730945    0.000000000000
