8

 C    3.764161434147    0.441986872249    0.000000000000
 H    4.799661434147    0.065898872249    0.000000000000
 H    3.230961434147    0.061283872249    0.888337000000
 H    3.230961434147    0.061283872249   -0.888337000000
 C    3.722395434147    1.998070872249    0.000000000000
 O    2.555199434147    2.504293872249    0.000000000000
 O    4.846466434147    2.593488872249    0.000000000000
RB   -2.585947172540   -1.307347712233    0.000000000000
