8

 C    3.906339545904    0.547397599590    0.000000000000
 H    4.941839545904    0.171309599590    0.000000000000
 H    3.373139545904    0.166694599590    0.888337000000
 H    3.373139545904    0.166694599590   -0.888337000000
 C    3.864573545904    2.103481599590    0.000000000000
 O    2.697377545904    2.609704599590    0.000000000000
 O    4.988644545904    2.698899599590    0.000000000000
RB   -2.684760307971   -1.380607684164    0.000000000000
