8

 C    4.048517657662    0.652808326932    0.000000000000
 H    5.084017657662    0.276720326932    0.000000000000
 H    3.515317657662    0.272105326932    0.888337000000
 H    3.515317657662    0.272105326932   -0.888337000000
 C    4.006751657662    2.208892326932    0.000000000000
 O    2.839555657662    2.715115326932    0.000000000000
 O    5.130822657662    2.804310326932    0.000000000000
RB   -2.783573443402   -1.453867656096    0.000000000000
