8

 C    4.095910361581    0.687945236045    0.000000000000
 H    5.131410361581    0.311857236045    0.000000000000
 H    3.562710361581    0.307242236045    0.888337000000
 H    3.562710361581    0.307242236045   -0.888337000000
 C    4.054144361581    2.244029236045    0.000000000000
 O    2.886948361581    2.750252236045    0.000000000000
 O    5.178215361581    2.839447236045    0.000000000000
RB   -2.816511155212   -1.478287646740    0.000000000000
