8

 C    4.190695769420    0.758219054273    0.000000000000
 H    5.226195769420    0.382131054273    0.000000000000
 H    3.657495769420    0.377516054273    0.888337000000
 H    3.657495769420    0.377516054273   -0.888337000000
 C    4.148929769420    2.314303054273    0.000000000000
 O    2.981733769420    2.820526054273    0.000000000000
 O    5.273000769420    2.909721054273    0.000000000000
RB   -2.882386578832   -1.527127628027    0.000000000000
