8

 C    4.285481177258    0.828492872500    0.000000000000
 H    5.320981177258    0.452404872500    0.000000000000
 H    3.752281177258    0.447789872500    0.888337000000
 H    3.752281177258    0.447789872500   -0.888337000000
 C    4.243715177258    2.384576872500    0.000000000000
 O    3.076519177258    2.890799872500    0.000000000000
 O    5.367786177258    2.979994872500    0.000000000000
RB   -2.948262002453   -1.575967609315    0.000000000000
