8

 C    4.475051992935    0.969040508955    0.000000000000
 H    5.510551992935    0.592952508955    0.000000000000
 H    3.941851992935    0.588337508955    0.888337000000
 H    3.941851992935    0.588337508955   -0.888337000000
 C    4.433285992935    2.525124508955    0.000000000000
 O    3.266089992935    3.031347508955    0.000000000000
 O    5.557356992935    3.120542508955    0.000000000000
RB   -3.080012849694   -1.673647571890    0.000000000000
