8

 C    4.569837400773    1.039314327183    0.000000000000
 H    5.605337400773    0.663226327183    0.000000000000
 H    4.036637400773    0.658611327183    0.888337000000
 H    4.036637400773    0.658611327183   -0.888337000000
 C    4.528071400773    2.595398327183    0.000000000000
 O    3.360875400773    3.101621327183    0.000000000000
 O    5.652142400773    3.190816327183    0.000000000000
RB   -3.145888273315   -1.722487553178    0.000000000000
