8

 C    4.617230104692    1.074451236296    0.000000000000
 H    5.652730104692    0.698363236296    0.000000000000
 H    4.084030104692    0.693748236296    0.888337000000
 H    4.084030104692    0.693748236296   -0.888337000000
 C    4.575464104692    2.630535236296    0.000000000000
 O    3.408268104692    3.136758236296    0.000000000000
 O    5.699535104692    3.225953236296    0.000000000000
RB   -3.178825985125   -1.746907543822    0.000000000000
