8

 C    4.712015512531    1.144725054524    0.000000000000
 H    5.747515512531    0.768637054524    0.000000000000
 H    4.178815512531    0.764022054524    0.888337000000
 H    4.178815512531    0.764022054524   -0.888337000000
 C    4.670249512531    2.700809054524    0.000000000000
 O    3.503053512531    3.207032054524    0.000000000000
 O    5.794320512531    3.296227054524    0.000000000000
RB   -3.244701408745   -1.795747525109    0.000000000000
