16

 N   -1.855471910057    0.734533536367   -0.006496426905
 C   -0.623346177790    0.104243256359   -0.005541466597
 N   -0.353205241664   -1.216642218609   -0.009005655544
 C    0.974923926799   -1.434836111359    0.006561773119
 H    1.288732209769   -2.481514843849    0.009941343810
 N    1.987273369840   -0.526855154218    0.020533043394
 C    1.675056625933    0.783965929031    0.015886639494
 N    2.682683580735    1.708464566336   -0.025935197437
 H    3.614135118122    1.377934457584    0.196522736696
 H    2.449946074708    2.668435321375    0.198875048003
 C    0.309555785059    1.160659782898    0.007115551779
 N   -0.313973526132    2.399625483528    0.016993760797
 C   -1.613899013289    2.091546095167    0.008538907639
 H   -2.423952542076    2.818126896269    0.012587045502
 H   -2.759261587227    0.274276412533   -0.014099482838
 K   -1.050284034950   -2.067512304261   -0.019068125178
