16

 N   -1.812904617610    0.786492132898   -0.005881959657
 C   -0.580778885343    0.156201852890   -0.004926999349
 N   -0.310637949217   -1.164683622078   -0.008391188296
 C    1.017491219246   -1.382877514828    0.007176240367
 H    1.331299502216   -2.429556247318    0.010555811058
 N    2.029840662287   -0.474896557687    0.021147510642
 C    1.717623918380    0.835924525562    0.016501106742
 N    2.725250873182    1.760423162867   -0.025320730189
 H    3.656702410569    1.429893054115    0.197137203944
 H    2.492513367155    2.720393917906    0.199489515251
 C    0.352123077506    1.212618379429    0.007730019027
 N   -0.271406233685    2.451584080059    0.017608228045
 C   -1.571331720842    2.143504691698    0.009153374887
 H   -2.381385249629    2.870085492800    0.013201512750
 H   -2.716694294780    0.326235009064   -0.013485015590
 K   -1.197829140671   -2.247609185634   -0.021197967830
