16

 N   -1.798715520127    0.803811665075   -0.005677137241
 C   -0.566589787860    0.173521385067   -0.004722176933
 N   -0.296448851734   -1.147364089901   -0.008186365880
 C    1.031680316729   -1.365557982651    0.007381062783
 H    1.345488599699   -2.412236715141    0.010760633474
 N    2.044029759770   -0.457577025510    0.021352333058
 C    1.731813015863    0.853244057739    0.016705929158
 N    2.739439970665    1.777742695044   -0.025115907773
 H    3.670891508052    1.447212586292    0.197342026360
 H    2.506702464638    2.737713450083    0.199694337667
 C    0.366312174989    1.229937911606    0.007934841443
 N   -0.257217136202    2.468903612236    0.017813050461
 C   -1.557142623359    2.160824223875    0.009358197303
 H   -2.367196152146    2.887405024977    0.013406335166
 H   -2.702505197297    0.343554541241   -0.013280193174
 K   -1.247010842578   -2.307641479425   -0.021907915381
