16

 N   -1.756148227680    0.855770261606   -0.005062669994
 C   -0.524022495413    0.225479981598   -0.004107709686
 N   -0.253881559287   -1.095405493370   -0.007571898633
 C    1.074247609176   -1.313599386120    0.007995530030
 H    1.388055892146   -2.360278118610    0.011375100721
 N    2.086597052217   -0.405618428979    0.021966800305
 C    1.774380308310    0.905202654270    0.017320396405
 N    2.782007263112    1.829701291575   -0.024501440526
 H    3.713458800499    1.499171182823    0.197956493607
 H    2.549269757085    2.789672046614    0.200308804914
 C    0.408879467436    1.281896508137    0.008549308690
 N   -0.214649843755    2.520862208767    0.018427517708
 C   -1.514575330912    2.212782820406    0.009972664550
 H   -2.324628859699    2.939363621508    0.014020802413
 H   -2.659937904850    0.395513137772   -0.012665725927
 K   -1.394555948300   -2.487738360799   -0.024037758033
