16

 N   -1.699391837749    0.925048390314   -0.004243380330
 C   -0.467266105482    0.294758110306   -0.003288420022
 N   -0.197125169356   -1.026127364662   -0.006752608969
 C    1.131003999107   -1.244321257412    0.008814819694
 H    1.444812282077   -2.290999989902    0.012194390385
 N    2.143353442148   -0.336340300271    0.022786089969
 C    1.831136698241    0.974480782978    0.018139686069
 N    2.838763653043    1.898979420283   -0.023682150862
 H    3.770215190430    1.568449311531    0.198775783271
 H    2.606026147016    2.858950175322    0.201128094578
 C    0.465635857367    1.351174636845    0.009368598354
 N   -0.157893453824    2.590140337475    0.019246807372
 C   -1.457818940981    2.282060949114    0.010791954214
 H   -2.267872469768    3.008641750216    0.014840092077
 H   -2.603181514919    0.464791266480   -0.011846436263
 K   -1.591282755928   -2.727867535964   -0.026877548236
