16

 N   -1.642635447819    0.994326519023   -0.003424090666
 C   -0.410509715552    0.364036239015   -0.002469130358
 N   -0.140368779426   -0.956849235953   -0.005933319305
 C    1.187760389037   -1.175043128703    0.009634109358
 H    1.501568672007   -2.221721861193    0.013013680049
 N    2.200109832078   -0.267062171562    0.023605379633
 C    1.887893088171    1.043758911687    0.018958975733
 N    2.895520042973    1.968257548992   -0.022862861198
 H    3.826971580360    1.637727440240    0.199595072935
 H    2.662782536946    2.928228304031    0.201947384242
 C    0.522392247297    1.420452765554    0.010187888018
 N   -0.101137063894    2.659418466184    0.020066097036
 C   -1.401062551051    2.351339077823    0.011611243878
 H   -2.211116079838    3.077919878925    0.015659381741
 H   -2.546425124989    0.534069395189   -0.011027146599
 K   -1.788009563556   -2.967996711129   -0.029717338439
