16

 N   -1.628446350337    1.011646051200   -0.003219268250
 C   -0.396320618070    0.381355771192   -0.002264307942
 N   -0.126179681944   -0.939529703776   -0.005728496889
 C    1.201949486519   -1.157723596526    0.009838931774
 H    1.515757769489   -2.204402329016    0.013218502465
 N    2.214298929560   -0.249742639385    0.023810202049
 C    1.902082185653    1.061078443864    0.019163798149
 N    2.909709140455    1.985577081169   -0.022658038782
 H    3.841160677842    1.655046972417    0.199799895351
 H    2.676971634428    2.945547836208    0.202152206658
 C    0.536581344779    1.437772297731    0.010392710434
 N   -0.086947966412    2.676737998361    0.020270919452
 C   -1.386873453569    2.368658610000    0.011816066294
 H   -2.196926982356    3.095239411102    0.015864204157
 H   -2.532236027507    0.551388927366   -0.010822324183
 K   -1.837191265464   -3.028029004920   -0.030427285990
