16

 N   -1.600068155372    1.046285115554   -0.002809623418
 C   -0.367942423105    0.415994835546   -0.001854663110
 N   -0.097801486979   -0.904890639422   -0.005318852057
 C    1.230327681484   -1.123084532172    0.010248576606
 H    1.544135964454   -2.169763264662    0.013628147297
 N    2.242677124525   -0.215103575031    0.024219846881
 C    1.930460380618    1.095717508218    0.019573442981
 N    2.938087335420    2.020216145523   -0.022248393950
 H    3.869538872807    1.689686036771    0.200209540183
 H    2.705349829393    2.980186900562    0.202561851490
 C    0.564959539744    1.472411362085    0.010802355266
 N   -0.058569771447    2.711377062715    0.020680564284
 C   -1.358495258604    2.403297674354    0.012225711126
 H   -2.168548787391    3.129878475456    0.016273848989
 H   -2.503857832542    0.586027991720   -0.010412679351
 K   -1.935554669278   -3.148093592502   -0.031847181092
