16

 N   -1.514933570477    1.150202308616   -0.001580688922
 C   -0.282807838210    0.519912028608   -0.000625728614
 N   -0.012666902084   -0.800973446360   -0.004089917561
 C    1.315462266379   -1.019167339110    0.011477511102
 H    1.629270549349   -2.065846071600    0.014857081793
 N    2.327811709420   -0.111186381969    0.025448781377
 C    2.015594965513    1.199634701280    0.020802377477
 N    3.023221920315    2.124133338585   -0.021019459454
 H    3.954673457702    1.793603229833    0.201438474679
 H    2.790484414288    3.084104093624    0.203790785986
 C    0.650094124639    1.576328555147    0.012031289762
 N    0.026564813448    2.815294255777    0.021909498780
 C   -1.273360673709    2.507214867416    0.013454645622
 H   -2.083414202496    3.233795668518    0.017502783485
 H   -2.418723247647    0.689945184782   -0.009183744855
 K   -2.230644880720   -3.508287355250   -0.036106866396
