16

 N   -1.500744472994    1.167521840794   -0.001375866506
 C   -0.268618740727    0.537231560786   -0.000420906198
 N    0.001522195399   -0.783653914182   -0.003885095145
 C    1.329651363862   -1.001847806932    0.011682333518
 H    1.643459646832   -2.048526539422    0.015061904209
 N    2.342000806903   -0.093866849791    0.025653603793
 C    2.029784062996    1.216954233458    0.021007199893
 N    3.037411017798    2.141452870763   -0.020814637038
 H    3.968862555185    1.810922762011    0.201643297095
 H    2.804673511771    3.101423625802    0.203995608402
 C    0.664283222122    1.593648087325    0.012236112178
 N    0.040753910931    2.832613787955    0.022114321196
 C   -1.259171576226    2.524534399594    0.013659468038
 H   -2.069225105013    3.251115200696    0.017707605901
 H   -2.404534150164    0.707264716960   -0.008978922439
 K   -2.279826582627   -3.568319649041   -0.036816813947
