16

 N   -1.486555375512    1.184841372971   -0.001171044090
 C   -0.254429643245    0.554551092963   -0.000216083782
 N    0.015711292881   -0.766334382005   -0.003680272729
 C    1.343840461344   -0.984528274755    0.011887155934
 H    1.657648744314   -2.031207007245    0.015266726625
 N    2.356189904385   -0.076547317614    0.025858426209
 C    2.043973160478    1.234273765635    0.021212022309
 N    3.051600115280    2.158772402940   -0.020609814622
 H    3.983051652667    1.828242294188    0.201848119511
 H    2.818862609253    3.118743157979    0.204200430818
 C    0.678472319604    1.610967619502    0.012440934594
 N    0.054943008413    2.849933320132    0.022319143612
 C   -1.244982478744    2.541853931771    0.013864290454
 H   -2.055036007531    3.268434732873    0.017912428317
 H   -2.390345052682    0.724584249137   -0.008774100023
 K   -2.329008284534   -3.628351942832   -0.037526761498
