16

 N   -1.458177180546    1.219480437325   -0.000761399259
 C   -0.226051448279    0.589190157317    0.000193561049
 N    0.044089487847   -0.731695317651   -0.003270627898
 C    1.372218656310   -0.949889210401    0.012296800765
 H    1.686026939280   -1.996567942891    0.015676371456
 N    2.384568099351   -0.041908253260    0.026268071040
 C    2.072351355444    1.268912829989    0.021621667140
 N    3.079978310246    2.193411467294   -0.020200169791
 H    4.011429847633    1.862881358542    0.202257764342
 H    2.847240804219    3.153382222333    0.204610075649
 C    0.706850514570    1.645606683856    0.012850579425
 N    0.083321203379    2.884572384486    0.022728788443
 C   -1.216604283778    2.576492996125    0.014273935285
 H   -2.026657812565    3.303073797227    0.018322073148
 H   -2.361966857716    0.759223313491   -0.008364455192
 K   -2.427371688349   -3.748416530415   -0.038946656599
