16

 N   -1.358853498169    1.340717162564    0.000672357653
 C   -0.126727765902    0.710426882556    0.001627317961
 N    0.143413170224   -0.610458592412   -0.001836870986
 C    1.471542338687   -0.828652485162    0.013730557677
 H    1.785350621657   -1.875331217652    0.017110128368
 N    2.483891781728    0.079328471979    0.027701827952
 C    2.171675037821    1.390149555228    0.023055424052
 N    3.179301992623    2.314648192533   -0.018766412879
 H    4.110753530010    1.984118083781    0.203691521254
 H    2.946564486596    3.274618947572    0.206043832561
 C    0.806174196947    1.766843409095    0.014284336337
 N    0.182644885756    3.005809109725    0.024162545355
 C   -1.117280601401    2.697729721364    0.015707692197
 H   -1.927334130188    3.424310522466    0.019755830060
 H   -2.262643175339    0.880460038730   -0.006930698280
 K   -2.771643601698   -4.168642586953   -0.043916289455
