16

 N   -1.330475303204    1.375356226918    0.001082002485
 C   -0.098349570937    0.745065946910    0.002036962793
 N    0.171791365189   -0.575819528058   -0.001427226154
 C    1.499920533652   -0.794013420808    0.014140202509
 H    1.813728816622   -1.840692153298    0.017519773200
 N    2.512269976693    0.113967536333    0.028111472784
 C    2.200053232786    1.424788619582    0.023465068884
 N    3.207680187588    2.349287256887   -0.018356768047
 H    4.139131724975    2.018757148135    0.204101166086
 H    2.974942681561    3.309258011926    0.206453477393
 C    0.834552391912    1.801482473449    0.014693981169
 N    0.211023080721    3.040448174079    0.024572190187
 C   -1.088902406436    2.732368785718    0.016117337029
 H   -1.898955935223    3.458949586820    0.020165474892
 H   -2.234264980374    0.915099103084   -0.006521053448
 K   -2.870007005512   -4.288707174536   -0.045336184556
