16

 N   -1.302097108239    1.409995291273    0.001491647317
 C   -0.069971375972    0.779705011265    0.002446607625
 N    0.200169560154   -0.541180463703   -0.001017581322
 C    1.528298728617   -0.759374356453    0.014549847341
 H    1.842107011587   -1.806053088943    0.017929418032
 N    2.540648171658    0.148606600688    0.028521117616
 C    2.228431427751    1.459427683937    0.023874713716
 N    3.236058382553    2.383926321242   -0.017947123215
 H    4.167509919940    2.053396212490    0.204510810918
 H    3.003320876526    3.343897076281    0.206863122225
 C    0.862930586877    1.836121537804    0.015103626001
 N    0.239401275686    3.075087238434    0.024981835019
 C   -1.060524211471    2.767007850073    0.016526981861
 H   -1.870577740258    3.493588651175    0.020575119724
 H   -2.205886785409    0.949738167439   -0.006111408616
 K   -2.968370409327   -4.408771762118   -0.046756079658
