16

 N   -1.273718913274    1.444634355627    0.001901292149
 C   -0.041593181007    0.814344075619    0.002856252457
 N    0.228547755119   -0.506541399349   -0.000607936490
 C    1.556676923582   -0.724735292099    0.014959492173
 H    1.870485206552   -1.771414024589    0.018339062864
 N    2.569026366623    0.183245665042    0.028930762448
 C    2.256809622716    1.494066748291    0.024284358548
 N    3.264436577518    2.418565385596   -0.017537478383
 H    4.195888114905    2.088035276844    0.204920455750
 H    3.031699071491    3.378536140635    0.207272767057
 C    0.891308781842    1.870760602158    0.015513270833
 N    0.267779470651    3.109726302788    0.025391479851
 C   -1.032146016506    2.801646914427    0.016936626693
 H   -1.842199545293    3.528227715529    0.020984764556
 H   -2.177508590444    0.984377231793   -0.005701763784
 K   -3.066733813141   -4.528836349700   -0.048175974759
