16

 N   -1.259529815791    1.461953887804    0.002106114565
 C   -0.027404083524    0.831663607796    0.003061074873
 N    0.242736852602   -0.489221867172   -0.000403114074
 C    1.570866021065   -0.707415759922    0.015164314589
 H    1.884674304035   -1.754094492412    0.018543885280
 N    2.583215464106    0.200565197219    0.029135584864
 C    2.270998720199    1.511386280468    0.024489180964
 N    3.278625675001    2.435884917773   -0.017332655967
 H    4.210077212388    2.105354809021    0.205125278166
 H    3.045888168974    3.395855672812    0.207477589473
 C    0.905497879325    1.888080134335    0.015718093249
 N    0.281968568134    3.127045834965    0.025596302267
 C   -1.017956919023    2.818966446604    0.017141449109
 H   -1.828010447810    3.545547247706    0.021189586972
 H   -2.163319492961    1.001696763970   -0.005496941368
 K   -3.115915515048   -4.588868643492   -0.048885922310
