16

 N   -1.216962523344    1.513912484335    0.002720581813
 C    0.015163208923    0.883622204327    0.003675542121
 N    0.285304145049   -0.437263270641    0.000211353174
 C    1.613433313512   -0.655457163391    0.015778781837
 H    1.927241596482   -1.702135895881    0.019158352528
 N    2.625782756553    0.252523793750    0.029750052112
 C    2.313566012646    1.563344876999    0.025103648212
 N    3.321192967448    2.487843514304   -0.016718188719
 H    4.252644504835    2.157313405552    0.205739745414
 H    3.088455461421    3.447814269343    0.208092056721
 C    0.948065171772    1.940038730866    0.016332560497
 N    0.324535860581    3.179004431496    0.026210769515
 C   -0.975389626576    2.870925043135    0.017755916357
 H   -1.785443155363    3.597505844237    0.021804054220
 H   -2.120752200514    1.053655360501   -0.004882474120
 K   -3.263460620769   -4.768965524865   -0.051015764962
