16

 N   -1.174395230896    1.565871080866    0.003335049061
 C    0.057730501371    0.935580800858    0.004290009369
 N    0.327871437497   -0.385304674110    0.000825820422
 C    1.656000605960   -0.603498566860    0.016393249085
 H    1.969808888930   -1.650177299350    0.019772819776
 N    2.668350049001    0.304482390281    0.030364519360
 C    2.356133305094    1.615303473530    0.025718115460
 N    3.363760259896    2.539802110835   -0.016103721471
 H    4.295211797283    2.209272002083    0.206354212662
 H    3.131022753869    3.499772865874    0.208706523969
 C    0.990632464220    1.991997327397    0.016947027745
 N    0.367103153029    3.230963028027    0.026825236763
 C   -0.932822334128    2.922883639666    0.018370383605
 H   -1.742875862915    3.649464440768    0.022418521468
 H   -2.078184908066    1.105613957032   -0.004268006872
 K   -3.411005726490   -4.949062406239   -0.053145607615
