16

 N   -1.160206133413    1.583190613043    0.003539871476
 C    0.071919598854    0.952900333035    0.004494831784
 N    0.342060534980   -0.367985141933    0.001030642837
 C    1.670189703443   -0.586179034683    0.016598071500
 H    1.983997986413   -1.632857767173    0.019977642191
 N    2.682539146484    0.321801922458    0.030569341775
 C    2.370322402577    1.632623005707    0.025922937875
 N    3.377949357379    2.557121643012   -0.015898899056
 H    4.309400894766    2.226591534260    0.206559035077
 H    3.145211851352    3.517092398051    0.208911346384
 C    1.004821561703    2.009316859574    0.017151850160
 N    0.381292250512    3.248282560204    0.027030059178
 C   -0.918633236645    2.940203171843    0.018575206020
 H   -1.728686765432    3.666783972945    0.022623343883
 H   -2.063995810583    1.122933489209   -0.004063184457
 K   -3.460187428397   -5.009094700030   -0.053855555165
