16

 N   -1.046693353553    1.721746870460    0.005178450804
 C    0.185432378714    1.091456590452    0.006133411112
 N    0.455573314840   -0.229428884516    0.002669222165
 C    1.783702483303   -0.447622777266    0.018236650828
 H    2.097510766273   -1.494301509756    0.021616221519
 N    2.796051926344    0.460358179875    0.032207921103
 C    2.483835182437    1.771179263124    0.027561517203
 N    3.491462137239    2.695677900429   -0.014260319728
 H    4.422913674626    2.365147791677    0.208197614405
 H    3.258724631212    3.655648655468    0.210549925712
 C    1.118334341563    2.147873116991    0.018790429488
 N    0.494805030372    3.386838817621    0.028668638506
 C   -0.805120456785    3.078759429260    0.020213785348
 H   -1.615173985572    3.805340230362    0.024261923211
 H   -1.950483030723    1.261489746626   -0.002424605129
 K   -3.853641043654   -5.489353050360   -0.059535135571
