16

 N   -1.032504256071    1.739066402637    0.005383273220
 C    0.199621476196    1.108776122629    0.006338233528
 N    0.469762412322   -0.212109352339    0.002874044581
 C    1.797891580785   -0.430303245089    0.018441473244
 H    2.111699863755   -1.476981977579    0.021821043935
 N    2.810241023826    0.477677712052    0.032412743519
 C    2.498024279919    1.788498795301    0.027766339619
 N    3.505651234721    2.712997432606   -0.014055497312
 H    4.437102772108    2.382467323854    0.208402436821
 H    3.272913728694    3.672968187645    0.210754748128
 C    1.132523439045    2.165192649168    0.018995251904
 N    0.508994127854    3.404158349798    0.028873460922
 C   -0.790931359303    3.096078961437    0.020418607764
 H   -1.600984888090    3.822659762539    0.024466745627
 H   -1.936293933241    1.278809278803   -0.002219782713
 K   -3.902822745561   -5.549385344151   -0.060245083122
