16

 N   -1.018315158588    1.756385934814    0.005588095636
 C    0.213810573679    1.126095654806    0.006543055944
 N    0.483951509805   -0.194789820162    0.003078866997
 C    1.812080678268   -0.412983712912    0.018646295660
 H    2.125888961238   -1.459662445402    0.022025866351
 N    2.824430121309    0.494997244229    0.032617565935
 C    2.512213377402    1.805818327478    0.027971162035
 N    3.519840332204    2.730316964783   -0.013850674896
 H    4.451291869591    2.399786856031    0.208607259237
 H    3.287102826177    3.690287719822    0.210959570544
 C    1.146712536528    2.182512181345    0.019200074320
 N    0.523183225337    3.421477881975    0.029078283338
 C   -0.776742261820    3.113398493614    0.020623430180
 H   -1.586795790607    3.839979294716    0.024671568043
 H   -1.922104835758    1.296128810980   -0.002014960297
 K   -3.952004447468   -5.609417637942   -0.060955030673
