16

 N   -1.004126061106    1.773705466991    0.005792918052
 C    0.227999671161    1.143415186983    0.006747878360
 N    0.498140607287   -0.177470287985    0.003283689413
 C    1.826269775750   -0.395664180735    0.018851118076
 H    2.140078058720   -1.442342913225    0.022230688767
 N    2.838619218791    0.512316776406    0.032822388351
 C    2.526402474884    1.823137859655    0.028175984451
 N    3.534029429686    2.747636496960   -0.013645852480
 H    4.465480967073    2.417106388208    0.208812081653
 H    3.301291923659    3.707607251999    0.211164392960
 C    1.160901634010    2.199831713522    0.019404896736
 N    0.537372322819    3.438797414152    0.029283105754
 C   -0.762553164338    3.130718025791    0.020828252596
 H   -1.572606693125    3.857298826893    0.024876390459
 H   -1.907915738276    1.313448343157   -0.001810137881
 K   -4.001186149375   -5.669449931733   -0.061664978224
