16

 N   -0.989936963623    1.791024999168    0.005997740468
 C    0.242188768644    1.160734719160    0.006952700776
 N    0.512329704770   -0.160150755808    0.003488511829
 C    1.840458873233   -0.378344648558    0.019055940492
 H    2.154267156203   -1.425023381048    0.022435511183
 N    2.852808316274    0.529636308583    0.033027210767
 C    2.540591572367    1.840457391832    0.028380806867
 N    3.548218527169    2.764956029137   -0.013441030064
 H    4.479670064556    2.434425920385    0.209016904069
 H    3.315481021142    3.724926784176    0.211369215376
 C    1.175090731493    2.217151245699    0.019609719152
 N    0.551561420302    3.456116946329    0.029487928170
 C   -0.748364066855    3.148037557968    0.021033075012
 H   -1.558417595642    3.874618359070    0.025081212875
 H   -1.893726640793    1.330767875334   -0.001605315465
 K   -4.050367851283   -5.729482225525   -0.062374925774
