16

 N   -0.904802378728    1.894942192231    0.007226674964
 C    0.327323353539    1.264651912223    0.008181635272
 N    0.597464289665   -0.056233562745    0.004717446325
 C    1.925593458128   -0.274427455495    0.020284874988
 H    2.239401741098   -1.321106187985    0.023664445679
 N    2.937942901169    0.633553501646    0.034256145263
 C    2.625726157262    1.944374584895    0.029609741363
 N    3.633353112064    2.868873222200   -0.012212095568
 H    4.564804649451    2.538343113448    0.210245838565
 H    3.400615606037    3.828843977239    0.212598149872
 C    1.260225316388    2.321068438762    0.020838653648
 N    0.636696005197    3.560034139392    0.030716862666
 C   -0.663229481960    3.251954751031    0.022262009508
 H   -1.473283010747    3.978535552133    0.026310147371
 H   -1.808592055898    1.434685068397   -0.000376380969
 K   -4.345458062725   -6.089675988272   -0.066634611079
