16

 N   -0.890613281245    1.912261724408    0.007431497380
 C    0.341512451022    1.281971444400    0.008386457688
 N    0.611653387148   -0.038914030568    0.004922268741
 C    1.939782555611   -0.257107923318    0.020489697404
 H    2.253590838581   -1.303786655808    0.023869268095
 N    2.952131998652    0.650873033823    0.034460967679
 C    2.639915254745    1.961694117072    0.029814563779
 N    3.647542209547    2.886192754377   -0.012007273152
 H    4.578993746934    2.555662645625    0.210450660981
 H    3.414804703520    3.846163509416    0.212802972288
 C    1.274414413871    2.338387970939    0.021043476064
 N    0.650885102680    3.577353671569    0.030921685082
 C   -0.649040384477    3.269274283208    0.022466831924
 H   -1.459093913264    3.995855084310    0.026514969787
 H   -1.794402958415    1.452004600574   -0.000171558553
 K   -4.394639764632   -6.149708282063   -0.067344558630
