16

 N   -0.876424183763    1.929581256585    0.007636319796
 C    0.355701548504    1.299290976577    0.008591280104
 N    0.625842484630   -0.021594498391    0.005127091157
 C    1.953971653093   -0.239788391141    0.020694519820
 H    2.267779936063   -1.286467123631    0.024074090511
 N    2.966321096134    0.668192566000    0.034665790095
 C    2.654104352227    1.979013649249    0.030019386195
 N    3.661731307029    2.903512286554   -0.011802450736
 H    4.593182844416    2.572982177802    0.210655483397
 H    3.428993801002    3.863483041593    0.213007794704
 C    1.288603511353    2.355707503116    0.021248298480
 N    0.665074200162    3.594673203746    0.031126507498
 C   -0.634851286995    3.286593815385    0.022671654340
 H   -1.444904815782    4.013174616487    0.026719792203
 H   -1.780213860933    1.469324132751    0.000033263863
 K   -4.443821466539   -6.209740575854   -0.068054506181
