16

 N   -0.862235086280    1.946900788762    0.007841142211
 C    0.369890645987    1.316610508754    0.008796102519
 N    0.640031582113   -0.004274966214    0.005331913572
 C    1.968160750576   -0.222468858964    0.020899342235
 H    2.281969033546   -1.269147591454    0.024278912926
 N    2.980510193617    0.685512098177    0.034870612510
 C    2.668293449710    1.996333181426    0.030224208610
 N    3.675920404512    2.920831818731   -0.011597628321
 H    4.607371941899    2.590301709979    0.210860305812
 H    3.443182898485    3.880802573770    0.213212617119
 C    1.302792608836    2.373027035293    0.021453120895
 N    0.679263297645    3.611992735923    0.031331329913
 C   -0.620662189512    3.303913347562    0.022876476755
 H   -1.430715718299    4.030494148664    0.026924614618
 H   -1.766024763450    1.486643664928    0.000238086278
 K   -4.493003168446   -6.269772869646   -0.068764453731
