16

 N   -0.848045988798    1.964220320939    0.008045964627
 C    0.384079743469    1.333930040931    0.009000924935
 N    0.654220679595    0.013044565963    0.005536735988
 C    1.982349848058   -0.205149326787    0.021104164651
 H    2.296158131028   -1.251828059277    0.024483735342
 N    2.994699291099    0.702831630354    0.035075434926
 C    2.682482547192    2.013652713603    0.030429031026
 N    3.690109501994    2.938151350908   -0.011392805905
 H    4.621561039381    2.607621242156    0.211065128228
 H    3.457371995967    3.898122105947    0.213417439535
 C    1.316981706318    2.390346567470    0.021657943311
 N    0.693452395127    3.629312268100    0.031536152329
 C   -0.606473092030    3.321232879739    0.023081299171
 H   -1.416526620817    4.047813680841    0.027129437034
 H   -1.751835665968    1.503963197105    0.000442908694
 K   -4.542184870353   -6.329805163437   -0.069474401282
