16

 N   -0.819667793833    1.998859385293    0.008455609459
 C    0.412457938434    1.368569105285    0.009410569767
 N    0.682598874560    0.047683630317    0.005946380820
 C    2.010728043023   -0.170510262433    0.021513809483
 H    2.324536325993   -1.217188994923    0.024893380174
 N    3.023077486064    0.737470694708    0.035485079758
 C    2.710860742157    2.048291777957    0.030838675858
 N    3.718487696959    2.972790415262   -0.010983161073
 H    4.649939234346    2.642260306510    0.211474773060
 H    3.485750190932    3.932761170301    0.213827084367
 C    1.345359901283    2.424985631824    0.022067588143
 N    0.721830590092    3.663951332454    0.031945797161
 C   -0.578094897065    3.355871944093    0.023490944003
 H   -1.388148425852    4.082452745195    0.027539081866
 H   -1.723457471003    1.538602261459    0.000852553526
 K   -4.640548274168   -6.449869751019   -0.070894296384
