16

 N   -0.777100501385    2.050817981824    0.009070076707
 C    0.455025230882    1.420527701816    0.010025037015
 N    0.725166167008    0.099642226848    0.006560848068
 C    2.053295335471   -0.118551665902    0.022128276731
 H    2.367103618441   -1.165230398392    0.025507847422
 N    3.065644778512    0.789429291239    0.036099547006
 C    2.753428034605    2.100250374488    0.031453143106
 N    3.761054989407    3.024749011793   -0.010368693825
 H    4.692506526794    2.694218903041    0.212089240308
 H    3.528317483380    3.984719766832    0.214441551615
 C    1.387927193731    2.476944228355    0.022682055391
 N    0.764397882540    3.715909928985    0.032560264409
 C   -0.535527604617    3.407830540624    0.024105411251
 H   -1.345581133404    4.134411341726    0.028153549114
 H   -1.680890178555    1.590560857990    0.001467020774
 K   -4.788093379889   -6.629966632393   -0.073024139036
