16

 N   -0.762911403903    2.068137514002    0.009274899123
 C    0.469214328364    1.437847233994    0.010229859431
 N    0.739355264490    0.116961759026    0.006765670484
 C    2.067484432953   -0.101232133724    0.022333099147
 H    2.381292715923   -1.147910866214    0.025712669838
 N    3.079833875994    0.806748823417    0.036304369422
 C    2.767617132087    2.117569906666    0.031657965522
 N    3.775244086889    3.042068543971   -0.010163871409
 H    4.706695624276    2.711538435219    0.212294062724
 H    3.542506580862    4.002039299010    0.214646374031
 C    1.402116291213    2.494263760533    0.022886877807
 N    0.778586980022    3.733229461163    0.032765086825
 C   -0.521338507135    3.425150072802    0.024310233667
 H   -1.331392035922    4.151730873904    0.028358371530
 H   -1.666701081073    1.607880390168    0.001671843190
 K   -4.837275081796   -6.689998926184   -0.073734086587
