16

 N   -0.691965916490    2.154735174887    0.010299011203
 C    0.540159815777    1.524444894879    0.011253971511
 N    0.810300751903    0.203559419911    0.007789782564
 C    2.138429920366   -0.014634472839    0.023357211227
 H    2.452238203336   -1.061313205329    0.026736781918
 N    3.150779363407    0.893346484302    0.037328481502
 C    2.838562619500    2.204167567551    0.032682077602
 N    3.846189574302    3.128666204856   -0.009139759329
 H    4.777641111689    2.798136096104    0.213318174804
 H    3.613452068275    4.088636959895    0.215670486111
 C    1.473061778626    2.580861421418    0.023910989887
 N    0.849532467435    3.819827122048    0.033789198905
 C   -0.450393019722    3.511747733687    0.025334345747
 H   -1.260446548509    4.238328534789    0.029382483610
 H   -1.595755593660    1.694478051053    0.002695955270
 K   -5.083183591331   -6.990160395140   -0.077283824340
