19

 C    0.033492774372    3.958564395833    0.011850173527
 H    0.445732774372    4.961974395833    0.043910173527
 C    0.626172774372    2.705544395833    0.051890173527
 H    1.685692774372    2.476294395833    0.128160173527
 N   -1.317247225628    3.711804395833   -0.086089826473
 H   -2.048027225628    4.413604395833   -0.137379826473
 C   -1.513617225628    2.365254395833   -0.103389826473
 H   -2.498687225628    1.913884395833   -0.176279826473
 N   -0.342407225628    1.715564395833   -0.020359826473
NA    0.109642774372   -0.549345604167    0.006520173527
 N    0.305357623730   -1.529937395916    0.018157857745
 C   -0.663217481815   -2.519926478921   -0.054091812491
 H   -1.722750492508   -2.290673795512   -0.130348610878
 C   -0.070541520714   -3.772939301808   -0.014051496377
 H   -0.482777773693   -4.776344835749   -0.046111967150
 N    1.280196540966   -3.526184875845    0.083884392842
 H    2.010980945686   -4.227978117604    0.135171425689
 C    1.476570954578   -2.179629273072    0.101184851822
 H    2.461642253820   -1.728252387612    0.174062576693
