19

 C    0.016749975000    4.042450987417    0.010854605676
 H    0.428989975000    5.045860987417    0.042914605676
 C    0.609429975000    2.789430987417    0.050894605676
 H    1.668949975000    2.560180987417    0.127164605676
 N   -1.333990025000    3.795690987417   -0.087085394324
 H   -2.064770025000    4.497490987417   -0.138375394324
 C   -1.530360025000    2.449140987417   -0.104385394324
 H   -2.515430025000    1.997770987417   -0.177275394324
 N   -0.359150025000    1.799450987417   -0.021355394324
NA    0.092899975000   -0.465459012583    0.005524605676
 N    0.327757794230   -1.642169162682    0.019489826738
 C   -0.640817311315   -2.632158245687   -0.052759843498
 H   -1.700350322008   -2.402905562278   -0.129016641886
 C   -0.048141350214   -3.885171068574   -0.012719527385
 H   -0.460377603194   -4.888576602515   -0.044779998157
 N    1.302596711466   -3.638416642611    0.085216361834
 H    2.033381116186   -4.340209884370    0.136503394682
 C    1.498971125078   -2.291861039838    0.102516820814
 H    2.484042424320   -1.840484154378    0.175394545685
