19

 C    0.008378575314    4.084394283209    0.010356821750
 H    0.420618575314    5.087804283209    0.042416821750
 C    0.601058575314    2.831374283209    0.050396821750
 H    1.660578575314    2.602124283209    0.126666821750
 N   -1.342361424686    3.837634283209   -0.087583178250
 H   -2.073141424686    4.539434283209   -0.138873178250
 C   -1.538731424686    2.491084283209   -0.104883178250
 H   -2.523801424686    2.039714283209   -0.177773178250
 N   -0.367521424686    1.841394283209   -0.021853178250
NA    0.084528575314   -0.423515716791    0.005026821750
 N    0.338957879480   -1.698285046065    0.020155811234
 C   -0.629617226065   -2.688274129070   -0.052093859002
 H   -1.689150236759   -2.459021445661   -0.128350657389
 C   -0.036941264964   -3.941286951957   -0.012053542889
 H   -0.449177517944   -4.944692485898   -0.044114013661
 N    1.313796796715   -3.694532525994    0.085882346331
 H    2.044581201436   -4.396325767753    0.137169379178
 C    1.510171210328   -2.347976923221    0.103182805311
 H    2.495242509570   -1.896600037761    0.176060530181
