19

 C   -0.025107023430    4.252167466378    0.008365686048
 H    0.387132976570    5.255577466378    0.040425686048
 C    0.567572976570    2.999147466378    0.048405686048
 H    1.627092976570    2.769897466378    0.124675686048
 N   -1.375847023430    4.005407466378   -0.089574313952
 H   -2.106627023430    4.707207466378   -0.140864313952
 C   -1.572217023430    2.658857466378   -0.106874313952
 H   -2.557287023430    2.207487466378   -0.179764313952
 N   -0.401007023430    2.009167466378   -0.023844313952
NA    0.051042976570   -0.255742533622    0.003035686048
 N    0.383758220479   -1.922748579596    0.022819749219
 C   -0.584816885066   -2.912737662602   -0.049429921017
 H   -1.644349895759   -2.683484979192   -0.125686719405
 C    0.007859076035   -4.165750485488   -0.009389604904
 H   -0.404377176945   -5.169156019429   -0.041450075676
 N    1.358597137715   -3.918996059525    0.088546284315
 H    2.089381542435   -4.620789301285    0.139833317163
 C    1.554971551327   -2.572440456752    0.105846743295
 H    2.540042850569   -2.121063571293    0.178724468166
