19

 C   -0.041849822802    4.336054057962    0.007370118197
 H    0.370390177198    5.339464057962    0.039430118197
 C    0.550830177198    3.083034057962    0.047410118197
 H    1.610350177198    2.853784057962    0.123680118197
 N   -1.392589822802    4.089294057962   -0.090569881803
 H   -2.123369822802    4.791094057962   -0.141859881803
 C   -1.588959822802    2.742744057962   -0.107869881803
 H   -2.574029822802    2.291374057962   -0.180759881803
 N   -0.417749822802    2.093054057962   -0.024839881803
NA    0.034300177198   -0.171855942038    0.002040118197
 N    0.406158390979   -2.034980346362    0.024151718211
 C   -0.562416714566   -3.024969429367   -0.048097952025
 H   -1.621949725260   -2.795716745958   -0.124354750412
 C    0.030259246535   -4.277982252254   -0.008057635911
 H   -0.381977006445   -5.281387786195   -0.040118106684
 N    1.380997308215   -4.031227826291    0.089878253308
 H    2.111781712935   -4.733021068050    0.141165286155
 C    1.577371721827   -2.684672223518    0.107178712288
 H    2.562443021069   -2.233295338058    0.180056437159
