19

 C   -0.075335421546    4.503827241130    0.005378982495
 H    0.336904578454    5.507237241130    0.037438982495
 C    0.517344578454    3.250807241130    0.045418982495
 H    1.576864578454    3.021557241130    0.121688982495
 N   -1.426075421546    4.257067241130   -0.092561017505
 H   -2.156855421546    4.958867241130   -0.143851017505
 C   -1.622445421546    2.910517241130   -0.109861017505
 H   -2.607515421546    2.459147241130   -0.182751017505
 N   -0.451235421546    2.260827241130   -0.026831017505
NA    0.000814578454   -0.004082758870    0.000048982495
 N    0.450958731978   -2.259443879894    0.026815656196
 C   -0.517616373567   -3.249432962899   -0.045434014040
 H   -1.577149384260   -3.020180279489   -0.121690812427
 C    0.075059587534   -4.502445785786   -0.005393697927
 H   -0.337176665445   -5.505851319727   -0.037454168699
 N    1.425797649214   -4.255691359822    0.092542191293
 H    2.156582053934   -4.957484601582    0.143829224140
 C    1.622172062826   -2.909135757049    0.109842650273
 H    2.607243362068   -2.457758871590    0.182720375143
