19

 C   -0.083706821232    4.545770536922    0.004881198569
 H    0.328533178768    5.549180536922    0.036941198569
 C    0.508973178768    3.292750536922    0.044921198569
 H    1.568493178768    3.063500536922    0.121191198569
 N   -1.434446821232    4.299010536922   -0.093058801431
 H   -2.165226821232    5.000810536922   -0.144348801431
 C   -1.630816821232    2.952460536922   -0.110358801431
 H   -2.615886821232    2.501090536922   -0.183248801431
 N   -0.459606821232    2.302770536922   -0.027328801431
NA   -0.007556821232    0.037860536922   -0.000448801431
 N    0.462158817228   -2.315559763277    0.027481640692
 C   -0.506416288317   -3.305548846282   -0.044768029544
 H   -1.565949299010   -3.076296162872   -0.121024827931
 C    0.086259672784   -4.558561669169   -0.004727713430
 H   -0.325976580196   -5.561967203109   -0.036788184203
 N    1.436997734464   -4.311807243205    0.093208175789
 H    2.167782139184   -5.013600484965    0.144495208636
 C    1.633372148076   -2.965251640432    0.110508634769
 H    2.618443447318   -2.513874754973    0.183386359640
