19

 C   -0.108821020290    4.671600424299    0.003387846792
 H    0.303418979710    5.675010424299    0.035447846792
 C    0.483858979710    3.418580424299    0.043427846792
 H    1.543378979710    3.189330424299    0.119697846792
 N   -1.459561020290    4.424840424299   -0.094552153208
 H   -2.190341020290    5.126640424299   -0.145842153208
 C   -1.655931020290    3.078290424299   -0.111852153208
 H   -2.641001020290    2.626920424299   -0.184742153208
 N   -0.484721020290    2.428600424299   -0.028822153208
NA   -0.032671020290    0.163690424299   -0.001942153208
 N    0.495759072978   -2.483907413425    0.029479594181
 C   -0.472816032567   -3.473896496430   -0.042770076055
 H   -1.532349043261   -3.244643813021   -0.119026874442
 C    0.119859928534   -4.726909319317   -0.002729759942
 H   -0.292376324446   -5.730314853258   -0.034790230714
 N    1.470597990213   -4.480154893354    0.095206129278
 H    2.201382394934   -5.181948135113    0.146493162125
 C    1.666972403826   -3.133599290581    0.112506588258
 H    2.652043703068   -2.682222405121    0.185384313128
