19

 C   -0.125563819662    4.755487015883    0.002392278941
 H    0.286676180338    5.758897015883    0.034452278941
 C    0.467116180338    3.502467015883    0.042432278941
 H    1.526636180338    3.273217015883    0.118702278941
 N   -1.476303819662    4.508727015883   -0.095547721059
 H   -2.207083819662    5.210527015883   -0.146837721059
 C   -1.672673819662    3.162177015883   -0.112847721059
 H   -2.657743819662    2.710807015883   -0.185737721059
 N   -0.501463819662    2.512487015883   -0.029817721059
NA   -0.049413819662    0.247577015883   -0.002937721059
 N    0.518159243477   -2.596139180191    0.030811563173
 C   -0.450415862068   -3.586128263196   -0.041438107062
 H   -1.509948872761   -3.356875579787   -0.117694905450
 C    0.142260099033   -4.839141086083   -0.001397790949
 H   -0.269976153946   -5.842546620024   -0.033458261721
 N    1.492998160713   -4.592386660120    0.096538098270
 H    2.223782565433   -5.294179901879    0.147825131117
 C    1.689372574325   -3.245831057347    0.113838557250
 H    2.674443873567   -2.794454171887    0.186716282121
