19

 C   -0.142306619034    4.839373607467    0.001396711090
 H    0.269933380966    5.842783607467    0.033456711090
 C    0.450373380966    3.586353607467    0.041436711090
 H    1.509893380966    3.357103607467    0.117706711090
 N   -1.493046619034    4.592613607467   -0.096543288910
 H   -2.223826619034    5.294413607467   -0.147833288910
 C   -1.689416619034    3.246063607467   -0.113843288910
 H   -2.674486619034    2.794693607467   -0.186733288910
 N   -0.518206619034    2.596373607467   -0.030813288910
NA   -0.066156619034    0.331463607467   -0.003933288910
 N    0.540559413977   -2.708370946957    0.032143532166
 C   -0.428015691568   -3.698360029962   -0.040106138070
 H   -1.487548702261   -3.469107346552   -0.116362936457
 C    0.164660269533   -4.951372852849   -0.000065821957
 H   -0.247575983447   -5.954778386790   -0.032126292729
 N    1.515398331213   -4.704618426885    0.097870067262
 H    2.246182735933   -5.406411668645    0.149157100110
 C    1.711772744825   -3.358062824112    0.115170526243
 H    2.696844044067   -2.906685938653    0.188048251113
