19

 C   -0.159049418406    4.923260199051    0.000401143239
 H    0.253190581594    5.926670199051    0.032461143239
 C    0.433630581594    3.670240199051    0.040441143239
 H    1.493150581594    3.440990199051    0.116711143239
 N   -1.509789418406    4.676500199051   -0.097538856761
 H   -2.240569418406    5.378300199051   -0.148828856761
 C   -1.706159418406    3.329950199051   -0.114838856761
 H   -2.691229418406    2.878580199051   -0.187728856761
 N   -0.534949418406    2.680260199051   -0.031808856761
NA   -0.082899418406    0.415350199051   -0.004928856761
 N    0.562959584477   -2.820602713722    0.033475501158
 C   -0.405615521068   -3.810591796728   -0.038774169078
 H   -1.465148531762   -3.581339113318   -0.115030967465
 C    0.187060440033   -5.063604619614    0.001266147036
 H   -0.225175812947   -6.067010153555   -0.030794323737
 N    1.537798501712   -4.816850193651    0.099202036255
 H    2.268582906433   -5.518643435411    0.150489069102
 C    1.734172915325   -3.470294590878    0.116502495235
 H    2.719244214567   -3.018917705419    0.189380220106
