19

 C   -0.175792217778    5.007146790635   -0.000594424612
 H    0.236447782222    6.010556790635    0.031465575388
 C    0.416887782222    3.754126790635    0.039445575388
 H    1.476407782222    3.524876790635    0.115715575388
 N   -1.526532217778    4.760386790635   -0.098534424612
 H   -2.257312217778    5.462186790635   -0.149824424612
 C   -1.722902217778    3.413836790635   -0.115834424612
 H   -2.707972217778    2.962466790635   -0.188724424612
 N   -0.551692217778    2.764146790635   -0.032804424612
NA   -0.099642217778    0.499236790635   -0.005924424612
 N    0.585359754977   -2.932834480488    0.034807470151
 C   -0.383215350568   -3.922823563493   -0.037442200085
 H   -1.442748361262   -3.693570880084   -0.113698998473
 C    0.209460610532   -5.175836386380    0.002598116028
 H   -0.202775642447   -6.179241920321   -0.029462354744
 N    1.560198672212   -4.929081960417    0.100534005247
 H    2.290983076932   -5.630875202176    0.151821038095
 C    1.756573085824   -3.582526357644    0.117834464227
 H    2.741644385066   -3.131149472184    0.190712189098
