19

 C   -0.209277816522    5.174919973804   -0.002585560315
 H    0.202962183478    6.178329973804    0.029474439685
 C    0.383402183478    3.921899973804    0.037454439685
 H    1.442922183478    3.692649973804    0.113724439685
 N   -1.560017816522    4.928159973804   -0.100525560315
 H   -2.290797816522    5.629959973804   -0.151815560315
 C   -1.756387816522    3.581609973804   -0.117825560315
 H   -2.741457816522    3.130239973804   -0.190715560315
 N   -0.585177816522    2.931919973804   -0.034795560315
NA   -0.133127816522    0.667009973804   -0.007915560315
 N    0.630160095976   -3.157298014020    0.037471408136
 C   -0.338415009569   -4.147287097025   -0.034778262100
 H   -1.397948020263   -3.918034413615   -0.111035060488
 C    0.254260951532   -5.400299919912    0.005262054013
 H   -0.157975301448   -6.403705453853   -0.026798416759
 N    1.604999013211   -5.153545493948    0.103197943232
 H    2.335783417932   -5.855338735708    0.154484976080
 C    1.801373426824   -3.806989891175    0.120498402212
 H    2.786444726066   -3.355613005716    0.193376127083
