19

 C   -0.242763415266    5.342693156972   -0.004576696017
 H    0.169476584734    6.346103156972    0.027483303983
 C    0.349916584734    4.089673156972    0.035463303983
 H    1.409436584734    3.860423156972    0.111733303983
 N   -1.593503415266    5.095933156972   -0.102516696017
 H   -2.324283415266    5.797733156972   -0.153806696017
 C   -1.789873415266    3.749383156972   -0.119816696017
 H   -2.774943415266    3.298013156972   -0.192706696017
 N   -0.618663415266    3.099693156972   -0.036786696017
NA   -0.166613415266    0.834783156972   -0.009906696017
 N    0.674960436975   -3.381761547551    0.040135346120
 C   -0.293614668570   -4.371750630556   -0.032114324115
 H   -1.353147679263   -4.142497947147   -0.108371122503
 C    0.299061292531   -5.624763453443    0.007925991998
 H   -0.113174960449   -6.628168987384   -0.024134478774
 N    1.649799354211   -5.378009027480    0.105861881217
 H    2.380583758931   -6.079802269239    0.157148914064
 C    1.846173767823   -4.031453424707    0.123162340197
 H    2.831245067065   -3.580076539247    0.196040065068
