19

 C   -0.251134814952    5.384636452764   -0.005074479943
 H    0.161105185048    6.388046452764    0.026985520057
 C    0.341545185048    4.131616452764    0.034965520057
 H    1.401065185048    3.902366452764    0.111235520057
 N   -1.601874814952    5.137876452764   -0.103014479943
 H   -2.332654814952    5.839676452764   -0.154304479943
 C   -1.798244814952    3.791326452764   -0.120314479943
 H   -2.783314814952    3.339956452764   -0.193204479943
 N   -0.627034814952    3.141636452764   -0.037284479943
NA   -0.174984814952    0.876726452764   -0.010404479943
 N    0.686160522225   -3.437877430934    0.040801330617
 C   -0.282414583320   -4.427866513939   -0.031448339619
 H   -1.341947594013   -4.198613830530   -0.107705138007
 C    0.310261377781   -5.680879336826    0.008591976494
 H   -0.101974875199   -6.684284870767   -0.023468494278
 N    1.660999439461   -5.434124910863    0.106527865713
 H    2.391783844181   -6.135918152622    0.157814898561
 C    1.857373853073   -4.087569308090    0.123828324693
 H    2.842445152315   -3.636192422630    0.196706049564
