19

 C   -0.276249014010    5.510466340140   -0.006567831719
 H    0.135990985990    6.513876340140    0.025492168281
 C    0.316430985990    4.257446340140    0.033472168281
 H    1.375950985990    4.028196340140    0.109742168281
 N   -1.626989014010    5.263706340140   -0.104507831719
 H   -2.357769014010    5.965506340140   -0.155797831719
 C   -1.823359014010    3.917156340140   -0.121807831719
 H   -2.808429014010    3.465786340140   -0.194697831719
 N   -0.652149014010    3.267466340140   -0.038777831719
NA   -0.200099014010    1.002556340140   -0.011897831719
 N    0.719760777975   -3.606225081083    0.042799284105
 C   -0.248814327570   -4.596214164088   -0.029450386130
 H   -1.308347338264   -4.366961480678   -0.105707184518
 C    0.343861633531   -5.849226986975    0.010589929983
 H   -0.068374619449   -6.852632520916   -0.021470540790
 N    1.694599695210   -5.602472561011    0.108525819202
 H    2.425384099931   -6.304265802771    0.159812852049
 C    1.890974108822   -4.255916958238    0.125826278182
 H    2.876045408065   -3.804540072779    0.198704003053
