19

 C   -0.292991813382    5.594352931724   -0.007563399571
 H    0.119248186618    6.597762931724    0.024496600429
 C    0.299688186618    4.341332931724    0.032476600429
 H    1.359208186618    4.112082931724    0.108746600429
 N   -1.643731813382    5.347592931724   -0.105503399571
 H   -2.374511813382    6.049392931724   -0.156793399571
 C   -1.840101813382    4.001042931724   -0.122803399571
 H   -2.825171813382    3.549672931724   -0.195693399571
 N   -0.668891813382    3.351352931724   -0.039773399571
NA   -0.216841813382    1.086442931724   -0.012893399571
 N    0.742160948474   -3.718456847848    0.044131253098
 C   -0.226414157071   -4.708445930854   -0.028118417138
 H   -1.285947167764   -4.479193247444   -0.104375215526
 C    0.366261804030   -5.961458753740    0.011921898975
 H   -0.045974448949   -6.964864287681   -0.020138571797
 N    1.716999865710   -5.714704327777    0.109857788194
 H    2.447784270430   -6.416497569537    0.161144821042
 C    1.913374279322   -4.368148725004    0.127158247174
 H    2.898445578564   -3.916771839545    0.200035972045
