19

 C   -0.309734612754    5.678239523309   -0.008558967422
 H    0.102505387246    6.681649523309    0.023501032578
 C    0.282945387246    4.425219523309    0.031481032578
 H    1.342465387246    4.195969523309    0.107751032578
 N   -1.660474612754    5.431479523309   -0.106498967422
 H   -2.391254612754    6.133279523309   -0.157788967422
 C   -1.856844612754    4.084929523309   -0.123798967422
 H   -2.841914612754    3.633559523309   -0.196688967422
 N   -0.685634612754    3.435239523309   -0.040768967422
NA   -0.233584612754    1.170329523309   -0.013888967422
 N    0.764561118974   -3.830688614614    0.045463222090
 C   -0.204013986571   -4.820677697619   -0.026786448146
 H   -1.263546997264   -4.591425014210   -0.103043246533
 C    0.388661974530   -6.073690520506    0.013253867968
 H   -0.023574278450   -7.077096054447   -0.018806602805
 N    1.739400036210   -5.826936094543    0.111189757187
 H    2.470184440930   -6.528729336302    0.162476790034
 C    1.935774449822   -4.480380491770    0.128490216167
 H    2.920845749064   -4.029003606310    0.201367941038
