19

 C   -0.326477412126    5.762126114893   -0.009554535273
 H    0.085762587874    6.765536114893    0.022505464727
 C    0.266202587874    4.509106114893    0.030485464727
 H    1.325722587874    4.279856114893    0.106755464727
 N   -1.677217412126    5.515366114893   -0.107494535273
 H   -2.407997412126    6.217166114893   -0.158784535273
 C   -1.873587412126    4.168816114893   -0.124794535273
 H   -2.858657412126    3.717446114893   -0.197684535273
 N   -0.702377412126    3.519126114893   -0.041764535273
NA   -0.250327412126    1.254216114893   -0.014884535273
 N    0.786961289474   -3.942920381380    0.046795191083
 C   -0.181613816071   -4.932909464385   -0.025454479153
 H   -1.241146826765   -4.703656780976   -0.101711277541
 C    0.411062145030   -6.185922287272    0.014585836960
 H   -0.001174107950   -7.189327821213   -0.017474633812
 N    1.761800206709   -5.939167861309    0.112521726179
 H    2.492584611430   -6.640961103068    0.163808759027
 C    1.958174620322   -4.592612258536    0.129822185159
 H    2.943245919564   -4.141235373076    0.202699910030
