19

 C   -0.334848811812    5.804069410685   -0.010052319198
 H    0.077391188188    6.807479410685    0.022007680802
 C    0.257831188188    4.551049410685    0.029987680802
 H    1.317351188188    4.321799410685    0.106257680802
 N   -1.685588811812    5.557309410685   -0.107992319198
 H   -2.416368811812    6.259109410685   -0.159282319198
 C   -1.881958811812    4.210759410685   -0.125292319198
 H   -2.867028811812    3.759389410685   -0.198182319198
 N   -0.710748811812    3.561069410685   -0.042262319198
NA   -0.258698811812    1.296159410685   -0.015382319198
 N    0.798161374724   -3.999036264763    0.047461175579
 C   -0.170413730821   -4.989025347768   -0.024788494657
 H   -1.229946741515   -4.759772664359   -0.101045293044
 C    0.422262230279   -6.242038170655    0.015251821456
 H    0.010025977300   -7.245443704596   -0.016808649316
 N    1.773000291959   -5.995283744691    0.113187710675
 H    2.503784696679   -6.697076986451    0.164474743523
 C    1.969374705571   -4.648728141918    0.130488169656
 H    2.954446004813   -4.197351256459    0.203365894526
