19

 C   -0.343220211498    5.846012706477   -0.010550103124
 H    0.069019788502    6.849422706477    0.021509896876
 C    0.249459788502    4.592992706477    0.029489896876
 H    1.308979788502    4.363742706477    0.105759896876
 N   -1.693960211498    5.599252706477   -0.108490103124
 H   -2.424740211498    6.301052706477   -0.159780103124
 C   -1.890330211498    4.252702706477   -0.125790103124
 H   -2.875400211498    3.801332706477   -0.198680103124
 N   -0.719120211498    3.603012706477   -0.042760103124
NA   -0.267070211498    1.338102706477   -0.015880103124
 N    0.809361459973   -4.055152148146    0.048127160075
 C   -0.159213645572   -5.045141231151   -0.024122510161
 H   -1.218746656265   -4.815888547741   -0.100379308548
 C    0.433462315529   -6.298154054038    0.015917805952
 H    0.021226062550   -7.301559587979   -0.016142664820
 N    1.784200377209   -6.051399628074    0.113853695172
 H    2.514984781929   -6.753192869834    0.165140728019
 C    1.980574790821   -4.704844025301    0.131154154152
 H    2.965646090063   -4.253467139842    0.204031879022
