19

 C   -0.359963010870    5.929899298061   -0.011545670975
 H    0.052276989130    6.933309298061    0.020514329025
 C    0.232716989130    4.676879298061    0.028494329025
 H    1.292236989130    4.447629298061    0.104764329025
 N   -1.710703010870    5.683139298061   -0.109485670975
 H   -2.441483010870    6.384939298061   -0.160775670975
 C   -1.907073010870    4.336589298061   -0.126785670975
 H   -2.892143010870    3.885219298061   -0.199675670975
 N   -0.735863010870    3.686899298061   -0.043755670975
NA   -0.283813010870    1.421989298061   -0.016875670975
 N    0.831761630473   -4.167383914911    0.049459129067
 C   -0.136813475072   -5.157372997917   -0.022790541168
 H   -1.196346485765   -4.928120314507   -0.099047339556
 C    0.455862486029   -6.410385820803    0.017249774945
 H    0.043626233049   -7.413791354744   -0.014810695827
 N    1.806600547709   -6.163631394840    0.115185664164
 H    2.537384952429   -6.865424636600    0.166472697012
 C    2.002974961321   -4.817075792067    0.132486123144
 H    2.988046260563   -4.365698906608    0.205363848015
