19

 C   -0.393448609614    6.097672481229   -0.013536806678
 H    0.018791390386    7.101082481229    0.018523193322
 C    0.199231390386    4.844652481229    0.026503193322
 H    1.258751390386    4.615402481229    0.102773193322
 N   -1.744188609614    5.850912481229   -0.111476806678
 H   -2.474968609614    6.552712481229   -0.162766806678
 C   -1.940558609614    4.504362481229   -0.128776806678
 H   -2.925628609614    4.052992481229   -0.201666806678
 N   -0.769348609614    3.854672481229   -0.045746806678
NA   -0.317298609614    1.589762481229   -0.018866806678
 N    0.876561971473   -4.391847448443    0.052123067052
 C   -0.092013134072   -5.381836531448   -0.020126603183
 H   -1.151546144766   -5.152583848039   -0.096383401571
 C    0.500662827028   -6.634849354335    0.019913712930
 H    0.088426574049   -7.638254888276   -0.012146757842
 N    1.851400888708   -6.388094928372    0.117849602149
 H    2.582185293428   -7.089888170131    0.169136634996
 C    2.047775302320   -5.041539325599    0.135150061129
 H    3.032846601562   -4.590162440139    0.208027786000
