19

 C   -0.401820009300    6.139615777022   -0.014034590603
 H    0.010419990700    7.143025777022    0.018025409397
 C    0.190859990700    4.886595777022    0.026005409397
 H    1.250379990700    4.657345777022    0.102275409397
 N   -1.752560009300    5.892855777022   -0.111974590603
 H   -2.483340009300    6.594655777022   -0.163264590603
 C   -1.948930009300    4.546305777022   -0.129274590603
 H   -2.934000009300    4.094935777022   -0.202164590603
 N   -0.777720009300    3.896615777022   -0.046244590603
NA   -0.325670009300    1.631705777022   -0.019364590603
 N    0.887762056722   -4.447963331826    0.052789051549
 C   -0.080813048823   -5.437952414831   -0.019460618687
 H   -1.140346059516   -5.208699731422   -0.095717417075
 C    0.511862912278   -6.690965237718    0.020579697426
 H    0.099626659299   -7.694370771659   -0.011480773346
 N    1.862600973958   -6.444210811754    0.118515586645
 H    2.593385378678   -7.146004053514    0.169802619493
 C    2.058975387570   -5.097655208981    0.135816045625
 H    3.044046686812   -4.646278323522    0.208693770496
