19

 C   -0.452048407416    6.391275551774   -0.017021294157
 H   -0.039808407416    7.394685551774    0.015038705843
 C    0.140631592584    5.138255551774    0.023018705843
 H    1.200151592584    4.909005551774    0.099288705843
 N   -1.802788407416    6.144515551774   -0.114961294157
 H   -2.533568407416    6.846315551774   -0.166251294157
 C   -1.999158407416    4.797965551774   -0.132261294157
 H   -2.984228407416    4.346595551774   -0.205151294157
 N   -0.827948407416    4.148275551774   -0.049231294157
NA   -0.375898407416    1.883365551774   -0.022351294157
 N    0.954962568221   -4.784658632123    0.056784958526
 C   -0.013612537324   -5.774647715128   -0.015464711710
 H   -1.073145548017   -5.545395031719   -0.091721510097
 C    0.579063423777   -7.027660538015    0.024575604403
 H    0.166827170798   -8.031066071956   -0.007484866369
 N    1.929801485457   -6.780906112052    0.122511493623
 H    2.660585890177   -7.482699353811    0.173798526470
 C    2.126175899069   -5.434350509279    0.139811952603
 H    3.111247198311   -4.982973623819    0.212689677473
