19

 C   -0.468791206788    6.475162143358   -0.018016862008
 H   -0.056551206788    7.478572143358    0.014043137992
 C    0.123888793212    5.222142143358    0.022023137992
 H    1.183408793212    4.992892143358    0.098293137992
 N   -1.819531206788    6.228402143358   -0.115956862008
 H   -2.550311206788    6.930202143358   -0.167246862008
 C   -2.015901206788    4.881852143358   -0.133256862008
 H   -3.000971206788    4.430482143358   -0.206146862008
 N   -0.844691206788    4.232162143358   -0.050226862008
NA   -0.392641206788    1.967252143358   -0.023346862008
 N    0.977362738721   -4.896890398889    0.058116927518
 C    0.008787633176   -5.886879481894   -0.014132742717
 H   -1.050745377517   -5.657626798485   -0.090389541105
 C    0.601463594277   -7.139892304781    0.025907573396
 H    0.189227341297   -8.143297838722   -0.006152897376
 N    1.952201655957   -6.893137878817    0.123843462615
 H    2.682986060677   -7.594931120577    0.175130495462
 C    2.148576069569   -5.546582276044    0.141143921595
 H    3.133647368811   -5.095205390585    0.214021646466
