19

 C   -0.477162606474    6.517105439150   -0.018514645933
 H   -0.064922606474    7.520515439150    0.013545354067
 C    0.115517393526    5.264085439150    0.021525354067
 H    1.175037393526    5.034835439150    0.097795354067
 N   -1.827902606474    6.270345439150   -0.116454645933
 H   -2.558682606474    6.972145439150   -0.167744645933
 C   -2.024272606474    4.923795439150   -0.133754645933
 H   -3.009342606474    4.472425439150   -0.206644645933
 N   -0.853062606474    4.274105439150   -0.050724645933
NA   -0.401012606474    2.009195439150   -0.023844645933
 N    0.988562823971   -4.953006282272    0.058782912015
 C    0.019987718426   -5.942995365277   -0.013466758221
 H   -1.039545292268   -5.713742681867   -0.089723556609
 C    0.612663679527   -7.196008188164    0.026573557892
 H    0.200427426547   -8.199413722105   -0.005486912880
 N    1.963401741207   -6.949253762200    0.124509447111
 H    2.694186145927   -7.651047003960    0.175796479959
 C    2.159776154819   -5.602698159427    0.141809906091
 H    3.144847454061   -5.151321273968    0.214687630962
