19

 C   -0.502276805532    6.642935326527   -0.020007997710
 H   -0.090036805532    7.646345326527    0.012052002290
 C    0.090403194468    5.389915326527    0.020032002290
 H    1.149923194468    5.160665326527    0.096302002290
 N   -1.853016805532    6.396175326527   -0.117947997710
 H   -2.583796805532    7.097975326527   -0.169237997710
 C   -2.049386805532    5.049625326527   -0.135247997710
 H   -3.034456805532    4.598255326527   -0.208137997710
 N   -0.878176805532    4.399935326527   -0.052217997710
NA   -0.426126805532    2.135025326527   -0.025337997710
 N    1.022163079721   -5.121353932420    0.060780865503
 C    0.053587974176   -6.111343015425   -0.011468804733
 H   -1.005945036518   -5.882090332016   -0.087725603120
 C    0.646263935276   -7.364355838312    0.028571511381
 H    0.234027682297   -8.367761372253   -0.003488959392
 N    1.997001996956   -7.117601412349    0.126507400600
 H    2.727786401676   -7.819394654108    0.177794433447
 C    2.193376410568   -5.771045809576    0.143807859580
 H    3.178447709810   -5.319668924116    0.216685584451
