19

 C   -0.519019604904    6.726821918111   -0.021003565561
 H   -0.106779604904    7.730231918111    0.011056434439
 C    0.073660395096    5.473801918111    0.019036434439
 H    1.133180395096    5.244551918111    0.095306434439
 N   -1.869759604904    6.480061918111   -0.118943565561
 H   -2.600539604904    7.181861918111   -0.170233565561
 C   -2.066129604904    5.133511918111   -0.136243565561
 H   -3.051199604904    4.682141918111   -0.209133565561
 N   -0.894919604904    4.483821918111   -0.053213565561
NA   -0.442869604904    2.218911918111   -0.026333565561
 N    1.044563250220   -5.233585699186    0.062112834496
 C    0.075988144675   -6.223574782191   -0.010136835740
 H   -0.983544866018   -5.994322098782   -0.086393634128
 C    0.668664105776   -7.476587605078    0.029903480373
 H    0.256427852796   -8.479993139019   -0.002156990399
 N    2.019402167456   -7.229833179115    0.127839369592
 H    2.750186572176   -7.931626420874    0.179126402440
 C    2.215776581068   -5.883277576342    0.145139828572
 H    3.200847880310   -5.431900690882    0.218017553443
