19

 C   -0.535762404276    6.810708509695   -0.021999133412
 H   -0.123522404276    7.814118509695    0.010060866588
 C    0.056917595724    5.557688509695    0.018040866588
 H    1.116437595724    5.328438509695    0.094310866588
 N   -1.886502404276    6.563948509695   -0.119939133412
 H   -2.617282404276    7.265748509695   -0.171229133412
 C   -2.082872404276    5.217398509695   -0.137239133412
 H   -3.067942404276    4.766028509695   -0.210129133412
 N   -0.911662404276    4.567708509695   -0.054209133412
NA   -0.459612404276    2.302798509695   -0.027329133412
 N    1.066963420720   -5.345817465952    0.063444803488
 C    0.098388315175   -6.335806548957   -0.008804866748
 H   -0.961144695519   -6.106553865548   -0.085061665135
 C    0.691064276276   -7.588819371844    0.031235449365
 H    0.278828023296   -8.592224905785   -0.000825021407
 N    2.041802337955   -7.342064945880    0.129171338585
 H    2.772586742676   -8.043858187640    0.180458371432
 C    2.238176751568   -5.995509343107    0.146471797565
 H    3.223248050810   -5.544132457648    0.219349522435
