19

 C   -0.560876603334    6.936538397071   -0.023492485189
 H   -0.148636603334    7.939948397071    0.008567514811
 C    0.031803396666    5.683518397071    0.016547514811
 H    1.091323396666    5.454268397071    0.092817514811
 N   -1.911616603334    6.689778397071   -0.121432485189
 H   -2.642396603334    7.391578397071   -0.172722485189
 C   -2.107986603334    5.343228397071   -0.138732485189
 H   -3.093056603334    4.891858397071   -0.211622485189
 N   -0.936776603334    4.693538397071   -0.055702485189
NA   -0.484726603334    2.428628397071   -0.028822485189
 N    1.100563676469   -5.514165116101    0.065442756977
 C    0.131988570924   -6.504154199106   -0.006806913259
 H   -0.927544439769   -6.274901515696   -0.083063711647
 C    0.724664532025   -7.757167021992    0.033233402854
 H    0.312428279046   -8.760572555933    0.001172932082
 N    2.075402593705   -7.510412596029    0.131169292073
 H    2.806186998425   -8.212205837789    0.182456324921
 C    2.271777007317   -6.163856993256    0.148469751053
 H    3.256848306559   -5.712480107797    0.221347475924
