19

 C   -0.577619402706    7.020424988655   -0.024488053040
 H   -0.165379402706    8.023834988655    0.007571946960
 C    0.015060597294    5.767404988655    0.015551946960
 H    1.074580597294    5.538154988655    0.091821946960
 N   -1.928359402706    6.773664988655   -0.122428053040
 H   -2.659139402706    7.475464988655   -0.173718053040
 C   -2.124729402706    5.427114988655   -0.139728053040
 H   -3.109799402706    4.975744988655   -0.212618053040
 N   -0.953519402706    4.777424988655   -0.056698053040
NA   -0.501469402706    2.512514988655   -0.029818053040
 N    1.122963846969   -5.626396882866    0.066774725969
 C    0.154388741424   -6.616385965871   -0.005474944267
 H   -0.905144269269   -6.387133282462   -0.081731742654
 C    0.747064702525   -7.869398788758    0.034565371847
 H    0.334828449545   -8.872804322699    0.002504901074
 N    2.097802764205   -7.622644362795    0.132501261066
 H    2.828587168925   -8.324437604554    0.183788293913
 C    2.294177177817   -6.276088760022    0.149801720046
 H    3.279248477059   -5.824711874562    0.222679444917
