19

 C   -0.585990802392    7.062368284447   -0.024985836966
 H   -0.173750802392    8.065778284447    0.007074163034
 C    0.006689197608    5.809348284447    0.015054163034
 H    1.066209197608    5.580098284447    0.091324163034
 N   -1.936730802392    6.815608284447   -0.122925836966
 H   -2.667510802392    7.517408284447   -0.174215836966
 C   -2.133100802392    5.469058284447   -0.140225836966
 H   -3.118170802392    5.017688284447   -0.213115836966
 N   -0.961890802392    4.819368284447   -0.057195836966
NA   -0.509840802392    2.554458284447   -0.030315836966
 N    1.134163932219   -5.682512766249    0.067440710465
 C    0.165588826674   -6.672501849254   -0.004808959770
 H   -0.893944184020   -6.443249165845   -0.081065758158
 C    0.758264787775   -7.925514672141    0.035231356343
 H    0.346028534795   -8.928920206082    0.003170885571
 N    2.109002849455   -7.678760246178    0.133167245562
 H    2.839787254175   -8.380553487937    0.184454278409
 C    2.305377263067   -6.332204643405    0.150467704542
 H    3.290448562309   -5.880827757945    0.223345429413
