19

 C   -0.594362202078    7.104311580239   -0.025483620892
 H   -0.182122202078    8.107721580239    0.006576379108
 C   -0.001682202078    5.851291580239    0.014556379108
 H    1.057837797922    5.622041580239    0.090826379108
 N   -1.945102202078    6.857551580239   -0.123423620892
 H   -2.675882202078    7.559351580239   -0.174713620892
 C   -2.141472202078    5.511001580239   -0.140723620892
 H   -3.126542202078    5.059631580239   -0.213613620892
 N   -0.970262202078    4.861311580239   -0.057693620892
NA   -0.518212202078    2.596401580239   -0.030813620892
 N    1.145364017469   -5.738628649632    0.068106694962
 C    0.176788911924   -6.728617732637   -0.004142975274
 H   -0.882744098770   -6.499365049228   -0.080399773662
 C    0.769464873025   -7.981630555524    0.035897340839
 H    0.357228620045   -8.985036089465    0.003836870067
 N    2.120202934704   -7.734876129561    0.133833230058
 H    2.850987339425   -8.436669371320    0.185120262906
 C    2.316577348317   -6.388320526788    0.151133689038
 H    3.301648647559   -5.936943641328    0.224011413909
