19

 C   -0.602733601764    7.146254876032   -0.025981404817
 H   -0.190493601764    8.149664876032    0.006078595183
 C   -0.010053601764    5.893234876032    0.014058595183
 H    1.049466398236    5.663984876032    0.090328595183
 N   -1.953473601764    6.899494876032   -0.123921404817
 H   -2.684253601764    7.601294876032   -0.175211404817
 C   -2.149843601764    5.552944876032   -0.141221404817
 H   -3.134913601764    5.101574876032   -0.214111404817
 N   -0.978633601764    4.903254876032   -0.058191404817
NA   -0.526583601764    2.638344876032   -0.031311404817
 N    1.156564102719   -5.794744533015    0.068772679458
 C    0.187988997174   -6.784733616020   -0.003476990778
 H   -0.871544013520   -6.555480932611   -0.079733789165
 C    0.780664958275   -8.037746438907    0.036563325335
 H    0.368428705295   -9.041151972848    0.004502854563
 N    2.131403019954   -7.790992012943    0.134499214555
 H    2.862187424675   -8.492785254703    0.185786247402
 C    2.327777433566   -6.444436410170    0.151799673535
 H    3.312848732809   -5.993059524711    0.224677398405
