19

 C   -0.627847800822    7.272084763408   -0.027474756594
 H   -0.215607800822    8.275494763408    0.004585243406
 C   -0.035167800822    6.019064763408    0.012565243406
 H    1.024352199178    5.789814763408    0.088835243406
 N   -1.978587800822    7.025324763408   -0.125414756594
 H   -2.709367800822    7.727124763408   -0.176704756594
 C   -2.174957800822    5.678774763408   -0.142714756594
 H   -3.160027800822    5.227404763408   -0.215604756594
 N   -1.003747800822    5.029084763408   -0.059684756594
NA   -0.551697800822    2.764174763408   -0.032804756594
 N    1.190164358468   -5.963092183163    0.070770632946
 C    0.221589252923   -6.953081266169   -0.001479037289
 H   -0.837943757770   -6.723828582759   -0.077735835677
 C    0.814265214024   -8.206094089055    0.038561278824
 H    0.402028961044   -9.209499622996    0.006500808052
 N    2.165003275704   -7.959339663092    0.136497168043
 H    2.895787680424   -8.661132904852    0.187784200891
 C    2.361377689316   -6.612784060319    0.153797627023
 H    3.346448988558   -6.161407174860    0.226675351894
