19

 C   -0.694818998310    7.607631129744   -0.031457027999
 H   -0.282578998310    8.611041129744    0.000602972001
 C   -0.102138998310    6.354611129744    0.008582972001
 H    0.957381001690    6.125361129744    0.084852972001
 N   -2.045558998310    7.360871129744   -0.129397027999
 H   -2.776338998310    8.062671129744   -0.180687027999
 C   -2.241928998310    6.014321129744   -0.146697027999
 H   -3.226998998310    5.562951129744   -0.219587027999
 N   -1.070718998310    5.364631129744   -0.063667027999
NA   -0.618668998310    3.099721129744   -0.036787027999
 N    1.279765040467   -6.412019250226    0.076098508916
 C    0.311189934922   -7.402008333232    0.003848838680
 H   -0.748343075772   -7.172755649822   -0.072407959707
 C    0.903865896023   -8.655021156118    0.043889154794
 H    0.491629643043   -9.658426690059    0.011828684021
 N    2.254603957703   -8.408266730155    0.141825044013
 H    2.985388362423   -9.110059971915    0.193112076860
 C    2.450978371315   -7.061711127382    0.159125502993
 H    3.436049670557   -6.610334241923    0.232003227864
