13

 C   -3.907993609009    0.000000053112    0.000000000000
 H   -5.003511609009    0.000000053112    0.000000000000
 C   -3.176526609009    1.209982053112    0.000000000000
 H   -3.714409609009    2.168601053112    0.000000000000
 C   -3.176526609009   -1.209982946888    0.000000000000
 H   -3.714408609009   -2.168601946888    0.000000000000
 C   -1.771356609009    1.215097053112    0.000000000000
 H   -1.224726609009    2.167255053112    0.000000000000
 C   -1.771356609009   -1.215096946888    0.000000000000
 H   -1.224726609009   -2.167253946888    0.000000000000
 C   -0.976319609009    0.000000053112    0.000000000000
 O    0.310027390991    0.000000053112    0.000000000000
CS    1.410027390991    0.000000053112    0.000000000000
