13

 C   -4.025640551504    0.000000053112    0.000000000000
 H   -5.121158551504    0.000000053112    0.000000000000
 C   -3.294173551504    1.209982053112    0.000000000000
 H   -3.832056551504    2.168601053112    0.000000000000
 C   -3.294173551504   -1.209982946888    0.000000000000
 H   -3.832055551504   -2.168601946888    0.000000000000
 C   -1.889003551504    1.215097053112    0.000000000000
 H   -1.342373551504    2.167255053112    0.000000000000
 C   -1.889003551504   -1.215096946888    0.000000000000
 H   -1.342373551504   -2.167253946888    0.000000000000
 C   -1.093966551504    0.000000053112    0.000000000000
 O    0.192380448496    0.000000053112    0.000000000000
CS    1.492380448496    0.000000053112    0.000000000000
