13

 C   -9.143282550019    0.000000053112    0.000000000000
 H  -10.238800550019    0.000000053112    0.000000000000
 C   -8.411815550019    1.209982053112    0.000000000000
 H   -8.949698550019    2.168601053112    0.000000000000
 C   -8.411815550019   -1.209982946888    0.000000000000
 H   -8.949697550019   -2.168601946888    0.000000000000
 C   -7.006645550019    1.215097053112    0.000000000000
 H   -6.460015550019    2.167255053112    0.000000000000
 C   -7.006645550019   -1.215096946888    0.000000000000
 H   -6.460015550019   -2.167253946888    0.000000000000
 C   -6.211608550019    0.000000053112    0.000000000000
 O   -4.925261550019    0.000000053112    0.000000000000
CS    5.074738449981    0.000000053112    0.000000000000
