13

 C   -4.496228321482    0.000000053112    0.000000000000
 H   -5.591746321482    0.000000053112    0.000000000000
 C   -3.764761321482    1.209982053112    0.000000000000
 H   -4.302644321482    2.168601053112    0.000000000000
 C   -3.764761321482   -1.209982946888    0.000000000000
 H   -4.302643321482   -2.168601946888    0.000000000000
 C   -2.359591321482    1.215097053112    0.000000000000
 H   -1.812961321482    2.167255053112    0.000000000000
 C   -2.359591321482   -1.215096946888    0.000000000000
 H   -1.812961321482   -2.167253946888    0.000000000000
 C   -1.564554321482    0.000000053112    0.000000000000
 O   -0.278207321482    0.000000053112    0.000000000000
CS    1.821792678518    0.000000053112    0.000000000000
