13

 C   -4.731522206471    0.000000053112    0.000000000000
 H   -5.827040206471    0.000000053112    0.000000000000
 C   -4.000055206471    1.209982053112    0.000000000000
 H   -4.537938206471    2.168601053112    0.000000000000
 C   -4.000055206471   -1.209982946888    0.000000000000
 H   -4.537937206471   -2.168601946888    0.000000000000
 C   -2.594885206471    1.215097053112    0.000000000000
 H   -2.048255206471    2.167255053112    0.000000000000
 C   -2.594885206471   -1.215096946888    0.000000000000
 H   -2.048255206471   -2.167253946888    0.000000000000
 C   -1.799848206471    0.000000053112    0.000000000000
 O   -0.513501206471    0.000000053112    0.000000000000
CS    1.986498793529    0.000000053112    0.000000000000
