13

 C   -5.143286505203    0.000000053112    0.000000000000
 H   -6.238804505203    0.000000053112    0.000000000000
 C   -4.411819505203    1.209982053112    0.000000000000
 H   -4.949702505203    2.168601053112    0.000000000000
 C   -4.411819505203   -1.209982946888    0.000000000000
 H   -4.949701505203   -2.168601946888    0.000000000000
 C   -3.006649505203    1.215097053112    0.000000000000
 H   -2.460019505203    2.167255053112    0.000000000000
 C   -3.006649505203   -1.215096946888    0.000000000000
 H   -2.460019505203   -2.167253946888    0.000000000000
 C   -2.211612505203    0.000000053112    0.000000000000
 O   -0.925265505203    0.000000053112    0.000000000000
CS    2.274734494797    0.000000053112    0.000000000000
