13

 C   -5.260933447697    0.000000053112    0.000000000000
 H   -6.356451447697    0.000000053112    0.000000000000
 C   -4.529466447697    1.209982053112    0.000000000000
 H   -5.067349447697    2.168601053112    0.000000000000
 C   -4.529466447697   -1.209982946888    0.000000000000
 H   -5.067348447697   -2.168601946888    0.000000000000
 C   -3.124296447697    1.215097053112    0.000000000000
 H   -2.577666447697    2.167255053112    0.000000000000
 C   -3.124296447697   -1.215096946888    0.000000000000
 H   -2.577666447697   -2.167253946888    0.000000000000
 C   -2.329259447697    0.000000053112    0.000000000000
 O   -1.042912447697    0.000000053112    0.000000000000
CS    2.357087552303    0.000000053112    0.000000000000
