13

 C   -5.437403861439    0.000000053112    0.000000000000
 H   -6.532921861439    0.000000053112    0.000000000000
 C   -4.705936861439    1.209982053112    0.000000000000
 H   -5.243819861439    2.168601053112    0.000000000000
 C   -4.705936861439   -1.209982946888    0.000000000000
 H   -5.243818861439   -2.168601946888    0.000000000000
 C   -3.300766861439    1.215097053112    0.000000000000
 H   -2.754136861439    2.167255053112    0.000000000000
 C   -3.300766861439   -1.215096946888    0.000000000000
 H   -2.754136861439   -2.167253946888    0.000000000000
 C   -2.505729861439    0.000000053112    0.000000000000
 O   -1.219382861439    0.000000053112    0.000000000000
CS    2.480617138561    0.000000053112    0.000000000000
