13

 C   -5.731521217676    0.000000053112    0.000000000000
 H   -6.827039217676    0.000000053112    0.000000000000
 C   -5.000054217676    1.209982053112    0.000000000000
 H   -5.537937217676    2.168601053112    0.000000000000
 C   -5.000054217676   -1.209982946888    0.000000000000
 H   -5.537936217676   -2.168601946888    0.000000000000
 C   -3.594884217676    1.215097053112    0.000000000000
 H   -3.048254217676    2.167255053112    0.000000000000
 C   -3.594884217676   -1.215096946888    0.000000000000
 H   -3.048254217676   -2.167253946888    0.000000000000
 C   -2.799847217676    0.000000053112    0.000000000000
 O   -1.513500217676    0.000000053112    0.000000000000
CS    2.686499782324    0.000000053112    0.000000000000
