13

 C   -5.849168160170    0.000000053112    0.000000000000
 H   -6.944686160170    0.000000053112    0.000000000000
 C   -5.117701160170    1.209982053112    0.000000000000
 H   -5.655584160170    2.168601053112    0.000000000000
 C   -5.117701160170   -1.209982946888    0.000000000000
 H   -5.655583160170   -2.168601946888    0.000000000000
 C   -3.712531160170    1.215097053112    0.000000000000
 H   -3.165901160170    2.167255053112    0.000000000000
 C   -3.712531160170   -1.215096946888    0.000000000000
 H   -3.165901160170   -2.167253946888    0.000000000000
 C   -2.917494160170    0.000000053112    0.000000000000
 O   -1.631147160170    0.000000053112    0.000000000000
CS    2.768852839830    0.000000053112    0.000000000000
