13

 C   -5.907991631417    0.000000053112    0.000000000000
 H   -7.003509631417    0.000000053112    0.000000000000
 C   -5.176524631417    1.209982053112    0.000000000000
 H   -5.714407631417    2.168601053112    0.000000000000
 C   -5.176524631417   -1.209982946888    0.000000000000
 H   -5.714406631417   -2.168601946888    0.000000000000
 C   -3.771354631417    1.215097053112    0.000000000000
 H   -3.224724631417    2.167255053112    0.000000000000
 C   -3.771354631417   -1.215096946888    0.000000000000
 H   -3.224724631417   -2.167253946888    0.000000000000
 C   -2.976317631417    0.000000053112    0.000000000000
 O   -1.689970631417    0.000000053112    0.000000000000
CS    2.810029368583    0.000000053112    0.000000000000
