13

 C   -6.025638573912    0.000000053112    0.000000000000
 H   -7.121156573912    0.000000053112    0.000000000000
 C   -5.294171573912    1.209982053112    0.000000000000
 H   -5.832054573912    2.168601053112    0.000000000000
 C   -5.294171573912   -1.209982946888    0.000000000000
 H   -5.832053573912   -2.168601946888    0.000000000000
 C   -3.889001573912    1.215097053112    0.000000000000
 H   -3.342371573912    2.167255053112    0.000000000000
 C   -3.889001573912   -1.215096946888    0.000000000000
 H   -3.342371573912   -2.167253946888    0.000000000000
 C   -3.093964573912    0.000000053112    0.000000000000
 O   -1.807617573912    0.000000053112    0.000000000000
CS    2.892382426088    0.000000053112    0.000000000000
