13

 C   -6.202108987654    0.000000053112    0.000000000000
 H   -7.297626987654    0.000000053112    0.000000000000
 C   -5.470641987654    1.209982053112    0.000000000000
 H   -6.008524987654    2.168601053112    0.000000000000
 C   -5.470641987654   -1.209982946888    0.000000000000
 H   -6.008523987654   -2.168601946888    0.000000000000
 C   -4.065471987654    1.215097053112    0.000000000000
 H   -3.518841987654    2.167255053112    0.000000000000
 C   -4.065471987654   -1.215096946888    0.000000000000
 H   -3.518841987654   -2.167253946888    0.000000000000
 C   -3.270434987654    0.000000053112    0.000000000000
 O   -1.984087987654    0.000000053112    0.000000000000
CS    3.015912012346    0.000000053112    0.000000000000
