13

 C   -6.260932458901    0.000000053112    0.000000000000
 H   -7.356450458901    0.000000053112    0.000000000000
 C   -5.529465458901    1.209982053112    0.000000000000
 H   -6.067348458901    2.168601053112    0.000000000000
 C   -5.529465458901   -1.209982946888    0.000000000000
 H   -6.067347458901   -2.168601946888    0.000000000000
 C   -4.124295458901    1.215097053112    0.000000000000
 H   -3.577665458901    2.167255053112    0.000000000000
 C   -4.124295458901   -1.215096946888    0.000000000000
 H   -3.577665458901   -2.167253946888    0.000000000000
 C   -3.329258458901    0.000000053112    0.000000000000
 O   -2.042911458901    0.000000053112    0.000000000000
CS    3.057088541099    0.000000053112    0.000000000000
