13

 C   -6.437402872643    0.000000053112    0.000000000000
 H   -7.532920872643    0.000000053112    0.000000000000
 C   -5.705935872643    1.209982053112    0.000000000000
 H   -6.243818872643    2.168601053112    0.000000000000
 C   -5.705935872643   -1.209982946888    0.000000000000
 H   -6.243817872643   -2.168601946888    0.000000000000
 C   -4.300765872643    1.215097053112    0.000000000000
 H   -3.754135872643    2.167255053112    0.000000000000
 C   -4.300765872643   -1.215096946888    0.000000000000
 H   -3.754135872643   -2.167253946888    0.000000000000
 C   -3.505728872643    0.000000053112    0.000000000000
 O   -2.219381872643    0.000000053112    0.000000000000
CS    3.180618127357    0.000000053112    0.000000000000
