13

 C   -6.613873286385    0.000000053112    0.000000000000
 H   -7.709391286385    0.000000053112    0.000000000000
 C   -5.882406286385    1.209982053112    0.000000000000
 H   -6.420289286385    2.168601053112    0.000000000000
 C   -5.882406286385   -1.209982946888    0.000000000000
 H   -6.420288286385   -2.168601946888    0.000000000000
 C   -4.477236286385    1.215097053112    0.000000000000
 H   -3.930606286385    2.167255053112    0.000000000000
 C   -4.477236286385   -1.215096946888    0.000000000000
 H   -3.930606286385   -2.167253946888    0.000000000000
 C   -3.682199286385    0.000000053112    0.000000000000
 O   -2.395852286385    0.000000053112    0.000000000000
CS    3.304147713615    0.000000053112    0.000000000000
