13

 C   -6.790343700127    0.000000053112    0.000000000000
 H   -7.885861700127    0.000000053112    0.000000000000
 C   -6.058876700127    1.209982053112    0.000000000000
 H   -6.596759700127    2.168601053112    0.000000000000
 C   -6.058876700127   -1.209982946888    0.000000000000
 H   -6.596758700127   -2.168601946888    0.000000000000
 C   -4.653706700127    1.215097053112    0.000000000000
 H   -4.107076700127    2.167255053112    0.000000000000
 C   -4.653706700127   -1.215096946888    0.000000000000
 H   -4.107076700127   -2.167253946888    0.000000000000
 C   -3.858669700127    0.000000053112    0.000000000000
 O   -2.572322700127    0.000000053112    0.000000000000
CS    3.427677299873    0.000000053112    0.000000000000
