13

 C   -6.907990642622    0.000000053112    0.000000000000
 H   -8.003508642622    0.000000053112    0.000000000000
 C   -6.176523642622    1.209982053112    0.000000000000
 H   -6.714406642622    2.168601053112    0.000000000000
 C   -6.176523642622   -1.209982946888    0.000000000000
 H   -6.714405642622   -2.168601946888    0.000000000000
 C   -4.771353642622    1.215097053112    0.000000000000
 H   -4.224723642622    2.167255053112    0.000000000000
 C   -4.771353642622   -1.215096946888    0.000000000000
 H   -4.224723642622   -2.167253946888    0.000000000000
 C   -3.976316642622    0.000000053112    0.000000000000
 O   -2.689969642622    0.000000053112    0.000000000000
CS    3.510030357378    0.000000053112    0.000000000000
