13

 C   -7.202107998858    0.000000053112    0.000000000000
 H   -8.297625998858    0.000000053112    0.000000000000
 C   -6.470640998858    1.209982053112    0.000000000000
 H   -7.008523998858    2.168601053112    0.000000000000
 C   -6.470640998858   -1.209982946888    0.000000000000
 H   -7.008522998858   -2.168601946888    0.000000000000
 C   -5.065470998858    1.215097053112    0.000000000000
 H   -4.518840998858    2.167255053112    0.000000000000
 C   -5.065470998858   -1.215096946888    0.000000000000
 H   -4.518840998858   -2.167253946888    0.000000000000
 C   -4.270433998858    0.000000053112    0.000000000000
 O   -2.984086998858    0.000000053112    0.000000000000
CS    3.715913001142    0.000000053112    0.000000000000
