13

 C   -7.260931470106    0.000000053112    0.000000000000
 H   -8.356449470106    0.000000053112    0.000000000000
 C   -6.529464470106    1.209982053112    0.000000000000
 H   -7.067347470106    2.168601053112    0.000000000000
 C   -6.529464470106   -1.209982946888    0.000000000000
 H   -7.067346470106   -2.168601946888    0.000000000000
 C   -5.124294470106    1.215097053112    0.000000000000
 H   -4.577664470106    2.167255053112    0.000000000000
 C   -5.124294470106   -1.215096946888    0.000000000000
 H   -4.577664470106   -2.167253946888    0.000000000000
 C   -4.329257470106    0.000000053112    0.000000000000
 O   -3.042910470106    0.000000053112    0.000000000000
CS    3.757089529894    0.000000053112    0.000000000000
