13

 C   -7.319754941353    0.000000053112    0.000000000000
 H   -8.415272941353    0.000000053112    0.000000000000
 C   -6.588287941353    1.209982053112    0.000000000000
 H   -7.126170941353    2.168601053112    0.000000000000
 C   -6.588287941353   -1.209982946888    0.000000000000
 H   -7.126169941353   -2.168601946888    0.000000000000
 C   -5.183117941353    1.215097053112    0.000000000000
 H   -4.636487941353    2.167255053112    0.000000000000
 C   -5.183117941353   -1.215096946888    0.000000000000
 H   -4.636487941353   -2.167253946888    0.000000000000
 C   -4.388080941353    0.000000053112    0.000000000000
 O   -3.101733941353    0.000000053112    0.000000000000
CS    3.798266058647    0.000000053112    0.000000000000
