13

 C   -7.437401883847    0.000000053112    0.000000000000
 H   -8.532919883847    0.000000053112    0.000000000000
 C   -6.705934883847    1.209982053112    0.000000000000
 H   -7.243817883847    2.168601053112    0.000000000000
 C   -6.705934883847   -1.209982946888    0.000000000000
 H   -7.243816883847   -2.168601946888    0.000000000000
 C   -5.300764883847    1.215097053112    0.000000000000
 H   -4.754134883847    2.167255053112    0.000000000000
 C   -5.300764883847   -1.215096946888    0.000000000000
 H   -4.754134883847   -2.167253946888    0.000000000000
 C   -4.505727883847    0.000000053112    0.000000000000
 O   -3.219380883847    0.000000053112    0.000000000000
CS    3.880619116153    0.000000053112    0.000000000000
