13

 C   -7.613872297589    0.000000053112    0.000000000000
 H   -8.709390297589    0.000000053112    0.000000000000
 C   -6.882405297589    1.209982053112    0.000000000000
 H   -7.420288297589    2.168601053112    0.000000000000
 C   -6.882405297589   -1.209982946888    0.000000000000
 H   -7.420287297589   -2.168601946888    0.000000000000
 C   -5.477235297589    1.215097053112    0.000000000000
 H   -4.930605297589    2.167255053112    0.000000000000
 C   -5.477235297589   -1.215096946888    0.000000000000
 H   -4.930605297589   -2.167253946888    0.000000000000
 C   -4.682198297589    0.000000053112    0.000000000000
 O   -3.395851297589    0.000000053112    0.000000000000
CS    4.004148702411    0.000000053112    0.000000000000
