13

 C   -8.143283538815    0.000000053112    0.000000000000
 H   -9.238801538815    0.000000053112    0.000000000000
 C   -7.411816538815    1.209982053112    0.000000000000
 H   -7.949699538815    2.168601053112    0.000000000000
 C   -7.411816538815   -1.209982946888    0.000000000000
 H   -7.949698538815   -2.168601946888    0.000000000000
 C   -6.006646538815    1.215097053112    0.000000000000
 H   -5.460016538815    2.167255053112    0.000000000000
 C   -6.006646538815   -1.215096946888    0.000000000000
 H   -5.460016538815   -2.167253946888    0.000000000000
 C   -5.211609538815    0.000000053112    0.000000000000
 O   -3.925262538815    0.000000053112    0.000000000000
CS    4.374737461185    0.000000053112    0.000000000000
