13

 C   -8.319753952557    0.000000053112    0.000000000000
 H   -9.415271952557    0.000000053112    0.000000000000
 C   -7.588286952557    1.209982053112    0.000000000000
 H   -8.126169952557    2.168601053112    0.000000000000
 C   -7.588286952557   -1.209982946888    0.000000000000
 H   -8.126168952557   -2.168601946888    0.000000000000
 C   -6.183116952557    1.215097053112    0.000000000000
 H   -5.636486952557    2.167255053112    0.000000000000
 C   -6.183116952557   -1.215096946888    0.000000000000
 H   -5.636486952557   -2.167253946888    0.000000000000
 C   -5.388079952557    0.000000053112    0.000000000000
 O   -4.101732952557    0.000000053112    0.000000000000
CS    4.498267047443    0.000000053112    0.000000000000
