13

 C   -8.613871308794    0.000000053112    0.000000000000
 H   -9.709389308794    0.000000053112    0.000000000000
 C   -7.882404308794    1.209982053112    0.000000000000
 H   -8.420287308794    2.168601053112    0.000000000000
 C   -7.882404308794   -1.209982946888    0.000000000000
 H   -8.420286308794   -2.168601946888    0.000000000000
 C   -6.477234308794    1.215097053112    0.000000000000
 H   -5.930604308794    2.167255053112    0.000000000000
 C   -6.477234308794   -1.215096946888    0.000000000000
 H   -5.930604308794   -2.167253946888    0.000000000000
 C   -5.682197308794    0.000000053112    0.000000000000
 O   -4.395850308794    0.000000053112    0.000000000000
CS    4.704149691206    0.000000053112    0.000000000000
