13

 C   -8.672694780041    0.000000053112    0.000000000000
 H   -9.768212780041    0.000000053112    0.000000000000
 C   -7.941227780041    1.209982053112    0.000000000000
 H   -8.479110780041    2.168601053112    0.000000000000
 C   -7.941227780041   -1.209982946888    0.000000000000
 H   -8.479109780041   -2.168601946888    0.000000000000
 C   -6.536057780041    1.215097053112    0.000000000000
 H   -5.989427780041    2.167255053112    0.000000000000
 C   -6.536057780041   -1.215096946888    0.000000000000
 H   -5.989427780041   -2.167253946888    0.000000000000
 C   -5.741020780041    0.000000053112    0.000000000000
 O   -4.454673780041    0.000000053112    0.000000000000
CS    4.745326219959    0.000000053112    0.000000000000
