13

 C   -8.731518251288    0.000000053112    0.000000000000
 H   -9.827036251288    0.000000053112    0.000000000000
 C   -8.000051251288    1.209982053112    0.000000000000
 H   -8.537934251288    2.168601053112    0.000000000000
 C   -8.000051251288   -1.209982946888    0.000000000000
 H   -8.537933251288   -2.168601946888    0.000000000000
 C   -6.594881251288    1.215097053112    0.000000000000
 H   -6.048251251288    2.167255053112    0.000000000000
 C   -6.594881251288   -1.215096946888    0.000000000000
 H   -6.048251251288   -2.167253946888    0.000000000000
 C   -5.799844251288    0.000000053112    0.000000000000
 O   -4.513497251288    0.000000053112    0.000000000000
CS    4.786502748712    0.000000053112    0.000000000000
