13

 C   -8.790341722535    0.000000053112    0.000000000000
 H   -9.885859722535    0.000000053112    0.000000000000
 C   -8.058874722535    1.209982053112    0.000000000000
 H   -8.596757722535    2.168601053112    0.000000000000
 C   -8.058874722535   -1.209982946888    0.000000000000
 H   -8.596756722535   -2.168601946888    0.000000000000
 C   -6.653704722535    1.215097053112    0.000000000000
 H   -6.107074722535    2.167255053112    0.000000000000
 C   -6.653704722535   -1.215096946888    0.000000000000
 H   -6.107074722535   -2.167253946888    0.000000000000
 C   -5.858667722535    0.000000053112    0.000000000000
 O   -4.572320722535    0.000000053112    0.000000000000
CS    4.827679277465    0.000000053112    0.000000000000
