13

 C   -9.084459078772    0.000000053112    0.000000000000
 H  -10.179977078772    0.000000053112    0.000000000000
 C   -8.352992078772    1.209982053112    0.000000000000
 H   -8.890875078772    2.168601053112    0.000000000000
 C   -8.352992078772   -1.209982946888    0.000000000000
 H   -8.890874078772   -2.168601946888    0.000000000000
 C   -6.947822078772    1.215097053112    0.000000000000
 H   -6.401192078772    2.167255053112    0.000000000000
 C   -6.947822078772   -1.215096946888    0.000000000000
 H   -6.401192078772   -2.167253946888    0.000000000000
 C   -6.152785078772    0.000000053112    0.000000000000
 O   -4.866438078772    0.000000053112    0.000000000000
CS    5.033561921228    0.000000053112    0.000000000000
