28

 N    0.800165380915    3.430093412486    0.136085206401
 C    0.240355380915    4.684353412486    0.153685206401
 H    0.928265380915    5.527903412486    0.211305206401
 C    0.031735380915    2.301683412486    0.065025206401
 O    0.574145380915    1.147473412486    0.049175206401
 N   -1.319724619085    2.393703412486    0.009055206401
 C   -1.902284619085    3.617783412486    0.024725206401
 N   -3.237204619085    3.679803412486   -0.031984793599
 H   -3.792314619085    2.834533412486   -0.085084793599
 H   -3.720724619085    4.570023412486   -0.024114793599
 C   -1.119394619085    4.818433412486    0.099115206401
 H   -1.581554619085    5.804763412486    0.111635206401
 H    1.809855380915    3.311423412486    0.175245206401
LI    1.185165380915   -0.595216587514    0.043135206401
LI   -1.331274619085    0.303203412486   -0.055644793599
 O   -0.564908365863   -1.129014907018   -0.048380030286
 C   -0.022498401745   -2.283229303268   -0.064230153739
 N   -0.790939288841   -3.411636087339   -0.135291931801
 H   -1.800626241846   -3.292970186605   -0.174446408358
 C   -0.231122130424   -4.665901605880   -0.152887605771
 H   -0.919038024486   -5.509449522726   -0.210510819693
 C    1.128624150609   -4.799983390957   -0.098326346388
 H    1.590775245347   -5.786317952050   -0.110847341817
 C    1.911517464518   -3.599340245186   -0.023935026666
 N    3.246435115297   -3.661363243567    0.032763887887
 N    1.328952883278   -2.375258161058   -0.008270005100
 H    3.801546034150   -2.816086801979    0.085864053299
 H    3.729948427663   -4.551579004233    0.024898608064
