28

 N    0.863250465876    3.556173906452    0.141488182698
 C    0.303440465876    4.810433906452    0.159088182698
 H    0.991350465876    5.653983906452    0.216708182698
 C    0.094820465876    2.427763906452    0.070428182698
 O    0.637230465876    1.273553906452    0.054578182698
 N   -1.256639534124    2.519783906452    0.014458182698
 C   -1.839199534124    3.743863906452    0.030128182698
 N   -3.174119534124    3.805883906452   -0.026581817302
 H   -3.729229534124    2.960613906452   -0.079681817302
 H   -3.657639534124    4.696103906452   -0.018711817302
 C   -1.056309534124    4.944513906452    0.104518182698
 H   -1.518469534124    5.930843906452    0.117038182698
 H    1.872940465876    3.437503906452    0.180648182698
LI    1.248250465876   -0.469136093548    0.048538182698
LI   -1.268189534124    0.429283906452   -0.050241817302
 O   -0.635965211842   -1.271027591099   -0.054465754904
 C   -0.093555247724   -2.425241987349   -0.070315878357
 N   -0.861996134820   -3.553648771420   -0.141377656419
 H   -1.871683087825   -3.434982870686   -0.180532132975
 C   -0.302178976404   -4.807914289961   -0.158973330388
 H   -0.990094870465   -5.651462206807   -0.216596544311
 C    1.057567304630   -4.941996075038   -0.104412071006
 H    1.519718399368   -5.928330636131   -0.116933066435
 C    1.840460618539   -3.741352929267   -0.030020751284
 N    3.175378269318   -3.803375927648    0.026678163269
 N    1.257896037299   -2.517270845138   -0.014355729718
 H    3.730489188171   -2.958099486060    0.079778328681
 H    3.658891581684   -4.693591688314    0.018812883447
