28

 N    0.905307189183    3.640227569096    0.145090166896
 C    0.345497189183    4.894487569096    0.162690166896
 H    1.033407189183    5.738037569096    0.220310166896
 C    0.136877189183    2.511817569096    0.074030166896
 O    0.679287189183    1.357607569096    0.058180166896
 N   -1.214582810817    2.603837569096    0.018060166896
 C   -1.797142810817    3.827917569096    0.033730166896
 N   -3.132062810817    3.889937569096   -0.022979833104
 H   -3.687172810817    3.044667569096   -0.076079833104
 H   -3.615582810817    4.780157569096   -0.015109833104
 C   -1.014252810817    5.028567569096    0.108120166896
 H   -1.476412810817    6.014897569096    0.120640166896
 H    1.914997189183    3.521557569096    0.184250166896
LI    1.290307189183   -0.385082430904    0.052140166896
LI   -1.226132810817    0.513337569096   -0.046639833104
 O   -0.683336442495   -1.365702713819   -0.058522904649
 C   -0.140926478377   -2.519917110070   -0.074373028102
 N   -0.909367365473   -3.648323894141   -0.145434806164
 H   -1.919054318478   -3.529657993407   -0.184589282721
 C   -0.349550207056   -4.902589412681   -0.163030480133
 H   -1.037466101118   -5.746137329527   -0.220653694056
 C    1.010196073977   -5.036671197758   -0.108469220751
 H    1.472347168715   -6.023005758851   -0.120990216180
 C    1.793089387886   -3.836028051987   -0.034077901029
 N    3.128007038665   -3.898051050368    0.022621013524
 N    1.210524806646   -2.611945967859   -0.018412879463
 H    3.683117957518   -3.052774608781    0.075721178936
 H    3.611520351031   -4.788266811034    0.014755733701
