28

 N    0.947363912490    3.724281231740    0.148692151094
 C    0.387553912490    4.978541231740    0.166292151094
 H    1.075463912490    5.822091231740    0.223912151094
 C    0.178933912490    2.595871231740    0.077632151094
 O    0.721343912490    1.441661231740    0.061782151094
 N   -1.172526087510    2.687891231740    0.021662151094
 C   -1.755086087510    3.911971231740    0.037332151094
 N   -3.090006087510    3.973991231740   -0.019377848906
 H   -3.645116087510    3.128721231740   -0.072477848906
 H   -3.573526087510    4.864211231740   -0.011507848906
 C   -0.972196087510    5.112621231740    0.111722151094
 H   -1.434356087510    6.098951231740    0.124242151094
 H    1.957053912490    3.605611231740    0.187852151094
LI    1.332363912490   -0.301028768260    0.055742151094
LI   -1.184076087510    0.597391231740   -0.043037848906
 O   -0.730707673148   -1.460377836540   -0.062580054394
 C   -0.188297709029   -2.614592232790   -0.078430177847
 N   -0.956738596125   -3.742999016861   -0.149491955910
 H   -1.966425549131   -3.624333116127   -0.188646432466
 C   -0.396921437709   -4.997264535402   -0.167087629879
 H   -1.084837331770   -5.840812452248   -0.224710843801
 C    0.962824843325   -5.131346320479   -0.112526370497
 H    1.424975938062   -6.117680881572   -0.125047365925
 C    1.745718157233   -3.930703174708   -0.038135050774
 N    3.080635808012   -3.992726173089    0.018563863779
 N    1.163153575994   -2.706621090580   -0.022470029208
 H    3.635746726865   -3.147449731501    0.071664029190
 H    3.564149120379   -4.882941933755    0.010698583956
