28

 N    1.010448997450    3.850361725705    0.154095127391
 C    0.450638997450    5.104621725705    0.171695127391
 H    1.138548997450    5.948171725705    0.229315127391
 C    0.242018997450    2.721951725705    0.083035127391
 O    0.784428997450    1.567741725705    0.067185127391
 N   -1.109441002550    2.813971725705    0.027065127391
 C   -1.692001002550    4.038051725705    0.042735127391
 N   -3.026921002550    4.100071725705   -0.013974872609
 H   -3.582031002550    3.254801725705   -0.067074872609
 H   -3.510441002550    4.990291725705   -0.006104872609
 C   -0.909111002550    5.238701725705    0.117125127391
 H   -1.371271002550    6.225031725705    0.129645127391
 H    2.020138997450    3.731691725705    0.193255127391
LI    1.395448997450   -0.174948274295    0.061145127391
LI   -1.120991002550    0.723471725705   -0.037634872609
 O   -0.801764519127   -1.602390520621   -0.068665779012
 C   -0.259354555009   -2.756604916871   -0.084515902465
 N   -1.027795442105   -3.885011700942   -0.155577680527
 H   -2.037482395110   -3.766345800208   -0.194732157084
 C   -0.467978283688   -5.139277219483   -0.173173354496
 H   -1.155894177750   -5.982825136329   -0.230796568419
 C    0.891767997345   -5.273359004560   -0.118612095114
 H    1.353919092083   -6.259693565653   -0.131133090543
 C    1.674661311254   -4.072715858789   -0.044220775392
 N    3.009578962033   -4.134738857170    0.012478139161
 N    1.092096730014   -2.848633774660   -0.028555753826
 H    3.564689880886   -3.289462415582    0.065578304573
 H    3.493092274399   -5.024954617835    0.004612859338
