28

 N    1.031477359104    3.892388557027    0.155896119490
 C    0.471667359104    5.146648557027    0.173496119490
 H    1.159577359104    5.990198557027    0.231116119490
 C    0.263047359104    2.763978557027    0.084836119490
 O    0.805457359104    1.609768557027    0.068986119490
 N   -1.088412640896    2.855998557027    0.028866119490
 C   -1.670972640896    4.080078557027    0.044536119490
 N   -3.005892640896    4.142098557027   -0.012173880510
 H   -3.561002640896    3.296828557027   -0.065273880510
 H   -3.489412640896    5.032318557027   -0.004303880510
 C   -0.888082640896    5.280728557027    0.118926119490
 H   -1.350242640896    6.267058557027    0.131446119490
 H    2.041167359104    3.773718557027    0.195056119490
LI    1.416477359104   -0.132921442973    0.062946119490
LI   -1.099962640896    0.765498557027   -0.035833880510
 O   -0.825450134453   -1.649728081981   -0.070694353885
 C   -0.283040170335   -2.803942478231   -0.086544477337
 N   -1.051481057431   -3.932349262302   -0.157606255400
 H   -2.061168010436   -3.813683361568   -0.196760731956
 C   -0.491663899015   -5.186614780843   -0.175201929369
 H   -1.179579793076   -6.030162697689   -0.232825143292
 C    0.868082382019   -5.320696565920   -0.120640669987
 H    1.330233476756   -6.307031127013   -0.133161665416
 C    1.650975695928   -4.120053420149   -0.046249350264
 N    2.985893346706   -4.182076418530    0.010449564288
 N    1.068411114688   -2.895971336021   -0.030584328698
 H    3.541004265560   -3.336799976942    0.063549729700
 H    3.469406659073   -5.072292179196    0.002584284466
