28

 N    1.052505720757    3.934415388349    0.157697111589
 C    0.492695720757    5.188675388349    0.175297111589
 H    1.180605720757    6.032225388349    0.232917111589
 C    0.284075720757    2.806005388349    0.086637111589
 O    0.826485720757    1.651795388349    0.070787111589
 N   -1.067384279243    2.898025388349    0.030667111589
 C   -1.649944279243    4.122105388349    0.046337111589
 N   -2.984864279243    4.184125388349   -0.010372888411
 H   -3.539974279243    3.338855388349   -0.063472888411
 H   -3.468384279243    5.074345388349   -0.002502888411
 C   -0.867054279243    5.322755388349    0.120727111589
 H   -1.329214279243    6.309085388349    0.133247111589
 H    2.062195720757    3.815745388349    0.196857111589
LI    1.437505720757   -0.090894611651    0.064747111589
LI   -1.078934279243    0.807525388349   -0.034032888411
 O   -0.849135749780   -1.697065643341   -0.072722928757
 C   -0.306725785661   -2.851280039591   -0.088573052210
 N   -1.075166672757   -3.979686823663   -0.159634830273
 H   -2.084853625762   -3.861020922929   -0.198789306829
 C   -0.515349514341   -5.233952342203   -0.177230504242
 H   -1.203265408402   -6.077500259049   -0.234853718164
 C    0.844396766693   -5.368034127280   -0.122669244860
 H    1.306547861430   -6.354368688373   -0.135190240288
 C    1.627290080601   -4.167390981509   -0.048277925137
 N    2.962207731380   -4.229413979890    0.008420989416
 N    1.044725499362   -2.943308897381   -0.032612903571
 H    3.517318650233   -3.384137538303    0.061521154827
 H    3.445721043747   -5.119629740556    0.000555709593
