28

 N    1.094562444064    4.018469050993    0.161299095787
 C    0.534752444064    5.272729050993    0.178899095787
 H    1.222662444064    6.116279050993    0.236519095787
 C    0.326132444064    2.890059050993    0.090239095787
 O    0.868542444064    1.735849050993    0.074389095787
 N   -1.025327555936    2.982079050993    0.034269095787
 C   -1.607887555936    4.206159050993    0.049939095787
 N   -2.942807555936    4.268179050993   -0.006770904213
 H   -3.497917555936    3.422909050993   -0.059870904213
 H   -3.426327555936    5.158399050993    0.001099095787
 C   -0.824997555936    5.406809050993    0.124329095787
 H   -1.287157555936    6.393139050993    0.136849095787
 H    2.104252444064    3.899799050993    0.200459095787
LI    1.479562444064   -0.006840949007    0.068349095787
LI   -1.036877555936    0.891579050993   -0.030430904213
 O   -0.896506980432   -1.791740766062   -0.076780078502
 C   -0.354097016314   -2.945955162312   -0.092630201955
 N   -1.122537903410   -4.074361946383   -0.163691980018
 H   -2.132224856415   -3.955696045649   -0.202846456574
 C   -0.562720744994   -5.328627464924   -0.181287653987
 H   -1.250636639055   -6.172175381770   -0.238910867909
 C    0.797025536040   -5.462709250001   -0.126726394605
 H    1.259176630777   -6.449043811094   -0.139247390033
 C    1.579918849949   -4.262066104230   -0.052335074882
 N    2.914836500727   -4.324089102611    0.004363839670
 N    0.997354268709   -3.037984020101   -0.036670053316
 H    3.469947419581   -3.478812661023    0.057464005082
 H    3.398349813094   -5.214304863277   -0.003501440152
