28

 N    1.136619167371    4.102522713637    0.164901079985
 C    0.576809167371    5.356782713637    0.182501079985
 H    1.264719167371    6.200332713637    0.240121079985
 C    0.368189167371    2.974112713637    0.093841079985
 O    0.910599167371    1.819902713637    0.077991079985
 N   -0.983270832629    3.066132713637    0.037871079985
 C   -1.565830832629    4.290212713637    0.053541079985
 N   -2.900750832629    4.352232713637   -0.003168920015
 H   -3.455860832629    3.506962713637   -0.056268920015
 H   -3.384270832629    5.242452713637    0.004701079985
 C   -0.782940832629    5.490862713637    0.127931079985
 H   -1.245100832629    6.477192713637    0.140451079985
 H    2.146309167371    3.983852713637    0.204061079985
LI    1.521619167371    0.077212713637    0.071951079985
LI   -0.994820832629    0.975632713637   -0.026828920015
 O   -0.943878211085   -1.886415888782   -0.080837228248
 C   -0.401468246967   -3.040630285033   -0.096687351700
 N   -1.169909134063   -4.169037069104   -0.167749129763
 H   -2.179596087068   -4.050371168370   -0.206903606319
 C   -0.610091975647   -5.423302587644   -0.185344803732
 H   -1.298007869708   -6.266850504490   -0.242968017655
 C    0.749654305387   -5.557384372721   -0.130783544350
 H    1.211805400125   -6.543718933814   -0.143304539779
 C    1.532547619296   -4.356741226950   -0.056392224627
 N    2.867465270075   -4.418764225331    0.000306689925
 N    0.949983038056   -3.132659142822   -0.040727203061
 H    3.422576188928   -3.573487783744    0.053406855337
 H    3.350978582441   -5.308979985997   -0.007558589897
