28

 N    1.157647529024    4.144549544959    0.166702072084
 C    0.597837529024    5.398809544959    0.184302072084
 H    1.285747529024    6.242359544959    0.241922072084
 C    0.389217529024    3.016139544959    0.095642072084
 O    0.931627529024    1.861929544959    0.079792072084
 N   -0.962242470976    3.108159544959    0.039672072084
 C   -1.544802470976    4.332239544959    0.055342072084
 N   -2.879722470976    4.394259544959   -0.001367927916
 H   -3.434832470976    3.548989544959   -0.054467927916
 H   -3.363242470976    5.284479544959    0.006502072084
 C   -0.761912470976    5.532889544959    0.129732072084
 H   -1.224072470976    6.519219544959    0.142252072084
 H    2.167337529024    4.025879544959    0.205862072084
LI    1.542647529024    0.119239544959    0.073752072084
LI   -0.973792470976    1.017659544959   -0.025027927916
 O   -0.967563826412   -1.933753450142   -0.082865803120
 C   -0.425153862293   -3.087967846393   -0.098715926573
 N   -1.193594749389   -4.216374630464   -0.169777704636
 H   -2.203281702394   -4.097708729730   -0.208932181192
 C   -0.633777590973   -5.470640149005   -0.187373378605
 H   -1.321693485034   -6.314188065851   -0.244996592527
 C    0.725968690061   -5.604721934082   -0.132812119222
 H    1.188119784798   -6.591056495175   -0.145333114651
 C    1.508862003970   -4.404078788311   -0.058420799500
 N    2.843779654748   -4.466101786692   -0.001721884947
 N    0.926297422730   -3.179996704182   -0.042755777934
 H    3.398890573601   -3.620825345104    0.051378280465
 H    3.327292967115   -5.356317547357   -0.009587164770
