28

 N    1.178675890678    4.186576376281    0.168503064182
 C    0.618865890678    5.440836376281    0.186103064182
 H    1.306775890678    6.284386376281    0.243723064182
 C    0.410245890678    3.058166376281    0.097443064182
 O    0.952655890678    1.903956376281    0.081593064182
 N   -0.941214109322    3.150186376281    0.041473064182
 C   -1.523774109322    4.374266376281    0.057143064182
 N   -2.858694109322    4.436286376281    0.000433064182
 H   -3.413804109322    3.591016376281   -0.052666935818
 H   -3.342214109322    5.326506376281    0.008303064182
 C   -0.740884109322    5.574916376281    0.131533064182
 H   -1.203044109322    6.561246376281    0.144053064182
 H    2.188365890678    4.067906376281    0.207663064182
LI    1.563675890678    0.161266376281    0.075553064182
LI   -0.952764109322    1.059686376281   -0.023226935818
 O   -0.991249441738   -1.981091011503   -0.084894377993
 C   -0.448839477620   -3.135305407753   -0.100744501446
 N   -1.217280364716   -4.263712191824   -0.171806279508
 H   -2.226967317721   -4.145046291090   -0.210960756064
 C   -0.657463206299   -5.517977710365   -0.189401953477
 H   -1.345379100361   -6.361525627211   -0.247025167400
 C    0.702283074734   -5.652059495442   -0.134840694095
 H    1.164434169472   -6.638394056535   -0.147361689524
 C    1.485176388643   -4.451416349671   -0.060449374372
 N    2.820094039422   -4.513439348052   -0.003750459820
 N    0.902611807403   -3.227334265543   -0.044784352806
 H    3.375204958275   -3.668162906464    0.049349705592
 H    3.303607351788   -5.403655108718   -0.011615739642
