28

 N    1.304846060599    4.438737364212    0.179309016776
 C    0.745036060599    5.692997364212    0.196909016776
 H    1.432946060599    6.536547364212    0.254529016776
 C    0.536416060599    3.310327364212    0.108249016776
 O    1.078826060599    2.156117364212    0.092399016776
 N   -0.815043939401    3.402347364212    0.052279016776
 C   -1.397603939401    4.626427364212    0.067949016776
 N   -2.732523939401    4.688447364212    0.011239016776
 H   -3.287633939401    3.843177364212   -0.041860983224
 H   -3.216043939401    5.578667364212    0.019109016776
 C   -0.614713939401    5.827077364212    0.142339016776
 H   -1.076873939401    6.813407364212    0.154859016776
 H    2.314536060599    4.320067364212    0.218469016776
LI    1.689846060599    0.413427364212    0.086359016776
LI   -0.826593939401    1.311847364212   -0.012420983224
 O   -1.133363133696   -2.265116379664   -0.097065827228
 C   -0.590953169578   -3.419330775915   -0.112915950681
 N   -1.359394056674   -4.547737559986   -0.183977728744
 H   -2.369081009679   -4.429071659252   -0.223132205300
 C   -0.799576898258   -5.802003078527   -0.201573402713
 H   -1.487492792319   -6.645550995373   -0.259196616635
 C    0.560169382776   -5.936084863604   -0.147012143331
 H    1.022320477513   -6.922419424697   -0.159533138759
 C    1.343062696685   -4.735441717833   -0.072620823608
 N    2.677980347463   -4.797464716214   -0.015921909055
 N    0.760498115445   -3.511359633704   -0.056955802042
 H    3.233091266317   -3.952188274626    0.037178256356
 H    3.161493659830   -5.687680476879   -0.023787188878
