28

 N    1.346902783906    4.522791026856    0.182911000974
 C    0.787092783906    5.777051026856    0.200511000974
 H    1.475002783906    6.620601026856    0.258131000974
 C    0.578472783906    3.394381026856    0.111851000974
 O    1.120882783906    2.240171026856    0.096001000974
 N   -0.772987216094    3.486401026856    0.055881000974
 C   -1.355547216094    4.710481026856    0.071551000974
 N   -2.690467216094    4.772501026856    0.014841000974
 H   -3.245577216094    3.927231026856   -0.038258999026
 H   -3.173987216094    5.662721026856    0.022711000974
 C   -0.572657216094    5.911131026856    0.145941000974
 H   -1.034817216094    6.897461026856    0.158461000974
 H    2.356592783906    4.404121026856    0.222071000974
LI    1.731902783906    0.497481026856    0.089961000974
LI   -0.784537216094    1.395901026856   -0.008818999026
 O   -1.180734364349   -2.359791502385   -0.101122976973
 C   -0.638324400231   -3.514005898635   -0.116973100426
 N   -1.406765287327   -4.642412682706   -0.188034878489
 H   -2.416452240332   -4.523746781972   -0.227189355045
 C   -0.846948128910   -5.896678201247   -0.205630552458
 H   -1.534864022972   -6.740226118093   -0.263253766380
 C    0.512798152123   -6.030759986324   -0.151069293076
 H    0.974949246861   -7.017094547417   -0.163590288505
 C    1.295691466032   -4.830116840553   -0.076677973353
 N    2.630609116811   -4.892139838934   -0.019979058801
 N    0.713126884792   -3.606034756425   -0.061012951787
 H    3.185720035664   -4.046863397347    0.033121106611
 H    3.114122429177   -5.782355599600   -0.027844338623
