28

 N    1.431016230520    4.690898352143    0.190114969370
 C    0.871206230520    5.945158352143    0.207714969370
 H    1.559116230520    6.788708352143    0.265334969370
 C    0.662586230520    3.562488352143    0.119054969370
 O    1.204996230520    2.408278352143    0.103204969370
 N   -0.688873769480    3.654508352143    0.063084969370
 C   -1.271433769480    4.878588352143    0.078754969370
 N   -2.606353769480    4.940608352143    0.022044969370
 H   -3.161463769480    4.095338352143   -0.031055030630
 H   -3.089873769480    5.830828352143    0.029914969370
 C   -0.488543769480    6.079238352143    0.153144969370
 H   -0.950703769480    7.065568352143    0.165664969370
 H    2.440706230520    4.572228352143    0.229274969370
LI    1.816016230520    0.665588352143    0.097164969370
LI   -0.700423769480    1.564008352143   -0.001615030630
 O   -1.275476825655   -2.549141747826   -0.109237276464
 C   -0.733066861536   -3.703356144076   -0.125087399917
 N   -1.501507748632   -4.831762928147   -0.196149177979
 H   -2.511194701637   -4.713097027413   -0.235303654535
 C   -0.941690590216   -6.086028446688   -0.213744851948
 H   -1.629606484277   -6.929576363534   -0.271368065871
 C    0.418055690818   -6.220110231765   -0.159183592566
 H    0.880206785555   -7.206444792858   -0.171704587995
 C    1.200949004727   -5.019467085994   -0.084792272844
 N    2.535866655505   -5.081490084375   -0.028093358291
 N    0.618384423487   -3.795385001866   -0.069127251278
 H    3.090977574358   -4.236213642788    0.025006807121
 H    3.019379967872   -5.971705845041   -0.035958638113
