28

 N    1.494101315480    4.816978846109    0.195517945667
 C    0.934291315480    6.071238846109    0.213117945667
 H    1.622201315480    6.914788846109    0.270737945667
 C    0.725671315480    3.688568846109    0.124457945667
 O    1.268081315480    2.534358846109    0.108607945667
 N   -0.625788684520    3.780588846109    0.068487945667
 C   -1.208348684520    5.004668846109    0.084157945667
 N   -2.543268684520    5.066688846109    0.027447945667
 H   -3.098378684520    4.221418846109   -0.025652054333
 H   -3.026788684520    5.956908846109    0.035317945667
 C   -0.425458684520    6.205318846109    0.158547945667
 H   -0.887618684520    7.191648846109    0.171067945667
 H    2.503791315480    4.698308846109    0.234677945667
LI    1.879101315480    0.791668846109    0.102567945667
LI   -0.637338684520    1.690088846109    0.003787945667
 O   -1.346533671634   -2.691154431907   -0.115323001082
 C   -0.804123707515   -3.845368828157   -0.131173124534
 N   -1.572564594611   -4.973775612228   -0.202234902597
 H   -2.582251547616   -4.855109711494   -0.241389379153
 C   -1.012747436195   -6.228041130769   -0.219830576566
 H   -1.700663330256   -7.071589047615   -0.277453790489
 C    0.346998844839   -6.362122915846   -0.165269317184
 H    0.809149939576   -7.348457476939   -0.177790312613
 C    1.129892158747   -5.161479770075   -0.090877997461
 N    2.464809809526   -5.223502768456   -0.034179082909
 N    0.547327577508   -3.937397685947   -0.075212975895
 H    3.019920728379   -4.378226326868    0.018921082503
 H    2.948323121893   -6.113718529122   -0.042044362731
