28

 N    1.578214762094    4.985086171397    0.202721914063
 C    1.018404762094    6.239346171397    0.220321914063
 H    1.706314762094    7.082896171397    0.277941914063
 C    0.809784762094    3.856676171397    0.131661914063
 O    1.352194762094    2.702466171397    0.115811914063
 N   -0.541675237906    3.948696171397    0.075691914063
 C   -1.124235237906    5.172776171397    0.091361914063
 N   -2.459155237906    5.234796171397    0.034651914063
 H   -3.014265237906    4.389526171397   -0.018448085937
 H   -2.942675237906    6.125016171397    0.042521914063
 C   -0.341345237906    6.373426171397    0.165751914063
 H   -0.803505237906    7.359756171397    0.178271914063
 H    2.587904762094    4.866416171397    0.241881914063
LI    1.963214762094    0.959776171397    0.109771914063
LI   -0.553225237906    1.858196171397    0.010991914063
 O   -1.441276132939   -2.880504677348   -0.123437300572
 C   -0.898866168821   -4.034719073598   -0.139287424025
 N   -1.667307055917   -5.163125857669   -0.210349202087
 H   -2.676994008922   -5.044459956935   -0.249503678644
 C   -1.107489897501   -6.417391376210   -0.227944876056
 H   -1.795405791562   -7.260939293056   -0.285568089979
 C    0.252256383533   -6.551473161287   -0.173383616674
 H    0.714407478271   -7.537807722380   -0.185904612103
 C    1.035149697442   -5.350830015516   -0.098992296952
 N    2.370067348221   -5.412853013897   -0.042293382399
 N    0.452585116202   -4.126747931388   -0.083327275386
 H    2.925178267074   -4.567576572310    0.010806783013
 H    2.853580660587   -6.303068774563   -0.050158662221
