28

 N    1.746441655322    5.321300821972    0.217129850855
 C    1.186631655322    6.575560821972    0.234729850855
 H    1.874541655322    7.419110821972    0.292349850855
 C    0.978011655322    4.192890821972    0.146069850855
 O    1.520421655322    3.038680821972    0.130219850855
 N   -0.373448344678    4.284910821972    0.090099850855
 C   -0.956008344678    5.508990821972    0.105769850855
 N   -2.290928344678    5.571010821972    0.049059850855
 H   -2.846038344678    4.725740821972   -0.004040149145
 H   -2.774448344678    6.461230821972    0.056929850855
 C   -0.173118344678    6.709640821972    0.180159850855
 H   -0.635278344678    7.695970821972    0.192679850855
 H    2.756131655322    5.202630821972    0.256289850855
LI    2.131441655322    1.295990821972    0.124179850855
LI   -0.384998344678    2.194410821972    0.025399850855
 O   -1.630761055550   -3.259205168230   -0.139665899553
 C   -1.088351091432   -4.413419564481   -0.155516023006
 N   -1.856791978528   -5.541826348552   -0.226577801068
 H   -2.866478931533   -5.423160447818   -0.265732277624
 C   -1.296974820112   -6.796091867092   -0.244173475037
 H   -1.984890714173   -7.639639783938   -0.301796688960
 C    0.062771460922   -6.930173652169   -0.189612215655
 H    0.524922555659   -7.916508213262   -0.202133211084
 C    0.845664774831   -5.729530506398   -0.115220895932
 N    2.180582425609   -5.791553504779   -0.058521981380
 N    0.263100193591   -4.505448422270   -0.099555874366
 H    2.735693344463   -4.946277063192   -0.005421815968
 H    2.664095737976   -6.681769265445   -0.066387261202
