28

 N    1.767470016975    5.363327653294    0.218930842954
 C    1.207660016975    6.617587653294    0.236530842954
 H    1.895570016975    7.461137653294    0.294150842954
 C    0.999040016975    4.234917653294    0.147870842954
 O    1.541450016975    3.080707653294    0.132020842954
 N   -0.352419983025    4.326937653294    0.091900842954
 C   -0.934979983025    5.551017653294    0.107570842954
 N   -2.269899983025    5.613037653294    0.050860842954
 H   -2.825009983025    4.767767653294   -0.002239157046
 H   -2.753419983025    6.503257653294    0.058730842954
 C   -0.152089983025    6.751667653294    0.181960842954
 H   -0.614249983025    7.737997653294    0.194480842954
 H    2.777160016975    5.244657653294    0.258090842954
LI    2.152470016975    1.338017653294    0.125980842954
LI   -0.363969983025    2.236437653294    0.027200842954
 O   -1.654446670877   -3.306542729590   -0.141694474425
 C   -1.112036706758   -4.460757125841   -0.157544597878
 N   -1.880477593854   -5.589163909912   -0.228606375941
 H   -2.890164546859   -5.470498009178   -0.267760852497
 C   -1.320660435438   -6.843429428453   -0.246202049910
 H   -2.008576329499   -7.686977345299   -0.303825263832
 C    0.039085845596   -6.977511213530   -0.191640790528
 H    0.501236940333   -7.963845774623   -0.204161785956
 C    0.821979159504   -5.776868067759   -0.117249470805
 N    2.156896810283   -5.838891066140   -0.060550556252
 N    0.239414578265   -4.552785983630   -0.101584449239
 H    2.712007729136   -4.993614624552   -0.007450390841
 H    2.640410122650   -6.729106826805   -0.068415836075
