28

 N    1.788498378629    5.405354484616    0.220731835053
 C    1.228688378629    6.659614484616    0.238331835053
 H    1.916598378629    7.503164484616    0.295951835053
 C    1.020068378629    4.276944484616    0.149671835053
 O    1.562478378629    3.122734484616    0.133821835053
 N   -0.331391621371    4.368964484616    0.093701835053
 C   -0.913951621371    5.593044484616    0.109371835053
 N   -2.248871621371    5.655064484616    0.052661835053
 H   -2.803981621371    4.809794484616   -0.000438164947
 H   -2.732391621371    6.545284484616    0.060531835053
 C   -0.131061621371    6.793694484616    0.183761835053
 H   -0.593221621371    7.780024484616    0.196281835053
 H    2.798188378629    5.286684484616    0.259891835053
LI    2.173498378629    1.380044484616    0.127781835053
LI   -0.342941621371    2.278464484616    0.029001835053
 O   -1.678132286203   -3.353880290951   -0.143723049298
 C   -1.135722322085   -4.508094687201   -0.159573172751
 N   -1.904163209181   -5.636501471272   -0.230634950813
 H   -2.913850162186   -5.517835570538   -0.269789427369
 C   -1.344346050764   -6.890766989813   -0.248230624782
 H   -2.032261944826   -7.734314906659   -0.305853838705
 C    0.015400230269   -7.024848774890   -0.193669365400
 H    0.477551325007   -8.011183335983   -0.206190360829
 C    0.798293544178   -5.824205629119   -0.119278045678
 N    2.133211194957   -5.886228627500   -0.062579131125
 N    0.215728962938   -4.600123544991   -0.103613024112
 H    2.688322113810   -5.040952185912   -0.009478965713
 H    2.616724507323   -6.776444388166   -0.070444410947
