28

 N    1.830555101936    5.489408147260    0.224333819251
 C    1.270745101936    6.743668147260    0.241933819251
 H    1.958655101936    7.587218147260    0.299553819251
 C    1.062125101936    4.360998147260    0.153273819251
 O    1.604535101936    3.206788147260    0.137423819251
 N   -0.289334898064    4.453018147260    0.097303819251
 C   -0.871894898064    5.677098147260    0.112973819251
 N   -2.206814898064    5.739118147260    0.056263819251
 H   -2.761924898064    4.893848147260    0.003163819251
 H   -2.690334898064    6.629338147260    0.064133819251
 C   -0.089004898064    6.877748147260    0.187363819251
 H   -0.551164898064    7.864078147260    0.199883819251
 H    2.840245101936    5.370738147260    0.263493819251
LI    2.215555101936    1.464098147260    0.131383819251
LI   -0.300884898064    2.362518147260    0.032603819251
 O   -1.725503516856   -3.448555413671   -0.147780199043
 C   -1.183093552738   -4.602769809922   -0.163630322496
 N   -1.951534439834   -5.731176593993   -0.234692100558
 H   -2.961221392839   -5.612510693259   -0.273846577115
 C   -1.391717281417   -6.985442112533   -0.252287774528
 H   -2.079633175479   -7.828990029379   -0.309910988450
 C   -0.031971000383   -7.119523897611   -0.197726515145
 H    0.430180094354   -8.105858458704   -0.210247510574
 C    0.750922313525   -5.918880751840   -0.123335195423
 N    2.085839964304   -5.980903750221   -0.066636280870
 N    0.168357732286   -4.694798667711   -0.107670173857
 H    2.640950883157   -5.135627308633   -0.013536115458
 H    2.569353276671   -6.871119510886   -0.074501560693
