28

 N    1.851583463589    5.531434978582    0.226134811349
 C    1.291773463589    6.785694978582    0.243734811349
 H    1.979683463589    7.629244978582    0.301354811349
 C    1.083153463589    4.403024978582    0.155074811349
 O    1.625563463589    3.248814978582    0.139224811349
 N   -0.268306536411    4.495044978582    0.099104811349
 C   -0.850866536411    5.719124978582    0.114774811349
 N   -2.185786536411    5.781144978582    0.058064811349
 H   -2.740896536411    4.935874978582    0.004964811349
 H   -2.669306536411    6.671364978582    0.065934811349
 C   -0.067976536411    6.919774978582    0.189164811349
 H   -0.530136536411    7.906104978582    0.201684811349
 H    2.861273463589    5.412764978582    0.265294811349
LI    2.236583463589    1.506124978582    0.133184811349
LI   -0.279856536411    2.404544978582    0.034404811349
 O   -1.749189132182   -3.495892975031   -0.149808773916
 C   -1.206779168064   -4.650107371282   -0.165658897369
 N   -1.975220055160   -5.778514155353   -0.236720675431
 H   -2.984907008165   -5.659848254619   -0.275875151987
 C   -1.415402896744   -7.032779673894   -0.254316349400
 H   -2.103318790805   -7.876327590740   -0.311939563323
 C   -0.055656615710   -7.166861458971   -0.199755090018
 H    0.406494479028   -8.153196020064   -0.212276085447
 C    0.727236698199   -5.966218313200   -0.125363770295
 N    2.062154348978   -6.028241311581   -0.068664855743
 N    0.144672116959   -4.742136229071   -0.109698748729
 H    2.617265267831   -5.182964869993   -0.015564690331
 H    2.545667661344   -6.918457072246   -0.076530135565
