28

 N    1.872611825243    5.573461809903    0.227935803448
 C    1.312801825243    6.827721809903    0.245535803448
 H    2.000711825243    7.671271809903    0.303155803448
 C    1.104181825243    4.445051809903    0.156875803448
 O    1.646591825243    3.290841809903    0.141025803448
 N   -0.247278174757    4.537071809903    0.100905803448
 C   -0.829838174757    5.761151809903    0.116575803448
 N   -2.164758174757    5.823171809903    0.059865803448
 H   -2.719868174757    4.977901809903    0.006765803448
 H   -2.648278174757    6.713391809903    0.067735803448
 C   -0.046948174757    6.961801809903    0.190965803448
 H   -0.509108174757    7.948131809903    0.203485803448
 H    2.882301825243    5.454791809903    0.267095803448
LI    2.257611825243    1.548151809903    0.134985803448
LI   -0.258828174757    2.446571809903    0.036205803448
 O   -1.772874747509   -3.543230536392   -0.151837348788
 C   -1.230464783390   -4.697444932642   -0.167687472241
 N   -1.998905670486   -5.825851716713   -0.238749250304
 H   -3.008592623491   -5.707185815979   -0.277903726860
 C   -1.439088512070   -7.080117235254   -0.256344924273
 H   -2.127004406131   -7.923665152100   -0.313968138195
 C   -0.079342231036   -7.214199020331   -0.201783664891
 H    0.382808863701   -8.200533581424   -0.214304660319
 C    0.703551082873   -6.013555874560   -0.127392345168
 N    2.038468733651   -6.075578872941   -0.070693430615
 N    0.120986501633   -4.789473790432   -0.111727323602
 H    2.593579652504   -5.230302431353   -0.017593265204
 H    2.521982046018   -6.965794633607   -0.078558710438
