28

 N    1.893640186896    5.615488641225    0.229736795547
 C    1.333830186896    6.869748641225    0.247336795547
 H    2.021740186896    7.713298641225    0.304956795547
 C    1.125210186896    4.487078641225    0.158676795547
 O    1.667620186896    3.332868641225    0.142826795547
 N   -0.226249813104    4.579098641225    0.102706795547
 C   -0.808809813104    5.803178641225    0.118376795547
 N   -2.143729813104    5.865198641225    0.061666795547
 H   -2.698839813104    5.019928641225    0.008566795547
 H   -2.627249813104    6.755418641225    0.069536795547
 C   -0.025919813104    7.003828641225    0.192766795547
 H   -0.488079813104    7.990158641225    0.205286795547
 H    2.903330186896    5.496818641225    0.268896795547
LI    2.278640186896    1.590178641225    0.136786795547
LI   -0.237799813104    2.488598641225    0.038006795547
 O   -1.796560362835   -3.590568097752   -0.153865923661
 C   -1.254150398717   -4.744782494002   -0.169716047114
 N   -2.022591285813   -5.873189278074   -0.240777825176
 H   -3.032278238818   -5.754523377340   -0.279932301732
 C   -1.462774127396   -7.127454796614   -0.258373499145
 H   -2.150690021458   -7.971002713460   -0.315996713068
 C   -0.103027846363   -7.261536581691   -0.203812239763
 H    0.359123248375   -8.247871142784   -0.216333235192
 C    0.679865467546   -6.060893435920   -0.129420920041
 N    2.014783118325   -6.122916434301   -0.072722005488
 N    0.097300886306   -4.836811351792   -0.113755898475
 H    2.569894037178   -5.277639992714   -0.019621840076
 H    2.498296430691   -7.013132194967   -0.080587285310
