28

 N    1.914668548550    5.657515472547    0.231537787646
 C    1.354858548550    6.911775472547    0.249137787646
 H    2.042768548550    7.755325472547    0.306757787646
 C    1.146238548550    4.529105472547    0.160477787646
 O    1.688648548550    3.374895472547    0.144627787646
 N   -0.205221451450    4.621125472547    0.104507787646
 C   -0.787781451450    5.845205472547    0.120177787646
 N   -2.122701451450    5.907225472547    0.063467787646
 H   -2.677811451450    5.061955472547    0.010367787646
 H   -2.606221451450    6.797445472547    0.071337787646
 C   -0.004891451450    7.045855472547    0.194567787646
 H   -0.467051451450    8.032185472547    0.207087787646
 H    2.924358548550    5.538845472547    0.270697787646
LI    2.299668548550    1.632205472547    0.138587787646
LI   -0.216771451450    2.530625472547    0.039807787646
 O   -1.820245978161   -3.637905659112   -0.155894498533
 C   -1.277836014043   -4.792120055363   -0.171744621986
 N   -2.046276901139   -5.920526839434   -0.242806400049
 H   -3.055963854144   -5.801860938700   -0.281960876605
 C   -1.486459742723   -7.174792357975   -0.260402074018
 H   -2.174375636784   -8.018340274820   -0.318025287940
 C   -0.126713461689   -7.308874143052   -0.205840814636
 H    0.335437633048   -8.295208704145   -0.218361810065
 C    0.656179852220   -6.108230997281   -0.131449494913
 N    1.991097502998   -6.170253995662   -0.074750580361
 N    0.073615270980   -4.884148913152   -0.115784473347
 H    2.546208421852   -5.324977554074   -0.021650414949
 H    2.474610815365   -7.060469756327   -0.082615860183
