28

 N    1.956725271857    5.741569135191    0.235139771844
 C    1.396915271857    6.995829135191    0.252739771844
 H    2.084825271857    7.839379135191    0.310359771844
 C    1.188295271857    4.613159135191    0.164079771844
 O    1.730705271857    3.458949135191    0.148229771844
 N   -0.163164728143    4.705179135191    0.108109771844
 C   -0.745724728143    5.929259135191    0.123779771844
 N   -2.080644728143    5.991279135191    0.067069771844
 H   -2.635754728143    5.146009135191    0.013969771844
 H   -2.564164728143    6.881499135191    0.074939771844
 C    0.037165271857    7.129909135191    0.198169771844
 H   -0.424994728143    8.116239135191    0.210689771844
 H    2.966415271857    5.622899135191    0.274299771844
LI    2.341725271857    1.716259135191    0.142189771844
LI   -0.174714728143    2.614679135191    0.043409771844
 O   -1.867617208814   -3.732580781833   -0.159951648279
 C   -1.325207244696   -4.886795178083   -0.175801771732
 N   -2.093648131792   -6.015201962154   -0.246863549794
 H   -3.103335084797   -5.896536061420   -0.286018026350
 C   -1.533830973376   -7.269467480695   -0.264459223763
 H   -2.221746867437   -8.113015397541   -0.322082437686
 C   -0.174084692342   -7.403549265772   -0.209897964381
 H    0.288066402396   -8.389883826865   -0.222418959810
 C    0.608808621567   -6.202906120001   -0.135506644658
 N    1.943726272346   -6.264929118382   -0.078807730106
 N    0.026244040327   -4.978824035873   -0.119841623092
 H    2.498837191199   -5.419652676795   -0.025707564694
 H    2.427239584712   -7.155144879048   -0.086673009928
