28

 N    2.019810356817    5.867649629157    0.240542748141
 C    1.460000356817    7.121909629157    0.258142748141
 H    2.147910356817    7.965459629157    0.315762748141
 C    1.251380356817    4.739239629157    0.169482748141
 O    1.793790356817    3.585029629157    0.153632748141
 N   -0.100079643183    4.831259629157    0.113512748141
 C   -0.682639643183    6.055339629157    0.129182748141
 N   -2.017559643183    6.117359629157    0.072472748141
 H   -2.572669643183    5.272089629157    0.019372748141
 H   -2.501079643183    7.007579629157    0.080342748141
 C    0.100250356817    7.255989629157    0.203572748141
 H   -0.361909643183    8.242319629157    0.216092748141
 H    3.029500356817    5.748979629157    0.279702748141
LI    2.404810356817    1.842339629157    0.147592748141
LI   -0.111629643183    2.740759629157    0.048812748141
 O   -1.938674054793   -3.874593465914   -0.166037372896
 C   -1.396264090675   -5.028807862164   -0.181887496349
 N   -2.164704977771   -6.157214646235   -0.252949274412
 H   -3.174391930776   -6.038548745501   -0.292103750968
 C   -1.604887819355   -7.411480164776   -0.270544948381
 H   -2.292803713416   -8.255028081622   -0.328168162303
 C   -0.245141538321   -7.545561949853   -0.215983688999
 H    0.217009556416   -8.531896510946   -0.228504684427
 C    0.537751775588   -6.344918804082   -0.141592369276
 N    1.872669426366   -6.406941802463   -0.084893454724
 N   -0.044812805652   -5.120836719954   -0.125927347710
 H    2.427780345220   -5.561665360875   -0.031793289312
 H    2.356182738733   -7.297157563129   -0.092758734546
