28

 N    2.061867080124    5.951703291801    0.244144732339
 C    1.502057080124    7.205963291801    0.261744732339
 H    2.189967080124    8.049513291801    0.319364732339
 C    1.293437080124    4.823293291801    0.173084732339
 O    1.835847080124    3.669083291801    0.157234732339
 N   -0.058022919876    4.915313291801    0.117114732339
 C   -0.640582919876    6.139393291801    0.132784732339
 N   -1.975502919876    6.201413291801    0.076074732339
 H   -2.530612919876    5.356143291801    0.022974732339
 H   -2.459022919876    7.091633291801    0.083944732339
 C    0.142307080124    7.340043291801    0.207174732339
 H   -0.319852919876    8.326373291801    0.219694732339
 H    3.071557080124    5.833033291801    0.283304732339
LI    2.446867080124    1.926393291801    0.151194732339
LI   -0.069572919876    2.824813291801    0.052414732339
 O   -1.986045285446   -3.969268588634   -0.170094522642
 C   -1.443635321328   -5.123482984885   -0.185944646094
 N   -2.212076208424   -6.251889768956   -0.257006424157
 H   -3.221763161429   -6.133223868222   -0.296160900713
 C   -1.652259050007   -7.506155287496   -0.274602098126
 H   -2.340174944069   -8.349703204342   -0.332225312049
 C   -0.292512768974   -7.640237072574   -0.220040838744
 H    0.169638325764   -8.626571633667   -0.232561834173
 C    0.490380544935   -6.439593926803   -0.145649519021
 N    1.825298195714   -6.501616925184   -0.088950604469
 N   -0.092184036305   -5.215511842674   -0.129984497455
 H    2.380409114567   -5.656340483596   -0.035850439057
 H    2.308811508080   -7.391832685849   -0.096815884291
