28

 N    2.103923803431    6.035756954444    0.247746716537
 C    1.544113803431    7.290016954444    0.265346716537
 H    2.232023803431    8.133566954444    0.322966716537
 C    1.335493803431    4.907346954444    0.176686716537
 O    1.877903803431    3.753136954444    0.160836716537
 N   -0.015966196569    4.999366954444    0.120716716537
 C   -0.598526196569    6.223446954444    0.136386716537
 N   -1.933446196569    6.285466954444    0.079676716537
 H   -2.488556196569    5.440196954444    0.026576716537
 H   -2.416966196569    7.175686954444    0.087546716537
 C    0.184363803431    7.424096954444    0.210776716537
 H   -0.277796196569    8.410426954444    0.223296716537
 H    3.113613803431    5.917086954444    0.286906716537
LI    2.488923803431    2.010446954444    0.154796716537
LI   -0.027516196569    2.908866954444    0.056016716537
 O   -2.033416516099   -4.063943711355   -0.174151672387
 C   -1.491006551980   -5.218158107605   -0.190001795840
 N   -2.259447439077   -6.346564891676   -0.261063573902
 H   -3.269134392082   -6.227898990942   -0.300218050458
 C   -1.699630280660   -7.600830410217   -0.278659247871
 H   -2.387546174722   -8.444378327063   -0.336282461794
 C   -0.339883999626   -7.734912195294   -0.224097988489
 H    0.122267095111   -8.721246756387   -0.236618983918
 C    0.443009314282   -6.534269049523   -0.149706668767
 N    1.777926965061   -6.596292047904   -0.093007754214
 N   -0.139555266957   -5.310186965395   -0.134041647200
 H    2.333037883914   -5.751015606316   -0.039907588802
 H    2.261440277428   -7.486507808570   -0.100873034036
