28

 N    2.124952165084    6.077783785766    0.249547708636
 C    1.565142165084    7.332043785766    0.267147708636
 H    2.253052165084    8.175593785766    0.324767708636
 C    1.356522165084    4.949373785766    0.178487708636
 O    1.898932165084    3.795163785766    0.162637708636
 N    0.005062165084    5.041393785766    0.122517708636
 C   -0.577497834916    6.265473785766    0.138187708636
 N   -1.912417834916    6.327493785766    0.081477708636
 H   -2.467527834916    5.482223785766    0.028377708636
 H   -2.395937834916    7.217713785766    0.089347708636
 C    0.205392165084    7.466123785766    0.212577708636
 H   -0.256767834916    8.452453785766    0.225097708636
 H    3.134642165084    5.959113785766    0.288707708636
LI    2.509952165084    2.052473785766    0.156597708636
LI   -0.006487834916    2.950893785766    0.057817708636
 O   -2.057102131425   -4.111281272715   -0.176180247259
 C   -1.514692167307   -5.265495668965   -0.192030370712
 N   -2.283133054403   -6.393902453037   -0.263092148775
 H   -3.292820007408   -6.275236552303   -0.302246625331
 C   -1.723315895987   -7.648167971577   -0.280687822744
 H   -2.411231790048   -8.491715888423   -0.338311036666
 C   -0.363569614953   -7.782249756654   -0.226126563362
 H    0.098581479785   -8.768584317747   -0.238647558790
 C    0.419323698956   -6.581606610883   -0.151735243639
 N    1.754241349735   -6.643629609264   -0.095036329087
 N   -0.163240882284   -5.357524526755   -0.136070222073
 H    2.309352268588   -5.798353167677   -0.041936163675
 H    2.237754662101   -7.533845369930   -0.102901608909
