28

 N    2.145980526738    6.119810617088    0.251348700735
 C    1.586170526738    7.374070617088    0.268948700735
 H    2.274080526738    8.217620617088    0.326568700735
 C    1.377550526738    4.991400617088    0.180288700735
 O    1.919960526738    3.837190617088    0.164438700735
 N    0.026090526738    5.083420617088    0.124318700735
 C   -0.556469473262    6.307500617088    0.139988700735
 N   -1.891389473262    6.369520617088    0.083278700735
 H   -2.446499473262    5.524250617088    0.030178700735
 H   -2.374909473262    7.259740617088    0.091148700735
 C    0.226420526738    7.508150617088    0.214378700735
 H   -0.235739473262    8.494480617088    0.226898700735
 H    3.155670526738    6.001140617088    0.290508700735
LI    2.530980526738    2.094500617088    0.158398700735
LI    0.014540526738    2.992920617088    0.059618700735
 O   -2.080787746752   -4.158618834075   -0.178208822132
 C   -1.538377782633   -5.312833230326   -0.194058945585
 N   -2.306818669729   -6.441240014397   -0.265120723647
 H   -3.316505622734   -6.322574113663   -0.304275200203
 C   -1.747001511313   -7.695505532938   -0.282716397616
 H   -2.434917405374   -8.539053449783   -0.340339611539
 C   -0.387255230279   -7.829587318015   -0.228155138234
 H    0.074895864458   -8.815921879108   -0.240676133663
 C    0.395638083630   -6.628944172244   -0.153763818512
 N    1.730555734408   -6.690967170625   -0.097064903959
 N   -0.186926497610   -5.404862088115   -0.138098796946
 H    2.285666653261   -5.845690729037   -0.043964738547
 H    2.214069046775   -7.581182931290   -0.104930183781
