28

 N    2.167008888391    6.161837448410    0.253149692834
 C    1.607198888391    7.416097448410    0.270749692834
 H    2.295108888391    8.259647448410    0.328369692834
 C    1.398578888391    5.033427448410    0.182089692834
 O    1.940988888391    3.879217448410    0.166239692834
 N    0.047118888391    5.125447448410    0.126119692834
 C   -0.535441111609    6.349527448410    0.141789692834
 N   -1.870361111609    6.411547448410    0.085079692834
 H   -2.425471111609    5.566277448410    0.031979692834
 H   -2.353881111609    7.301767448410    0.092949692834
 C    0.247448888391    7.550177448410    0.216179692834
 H   -0.214711111609    8.536507448410    0.228699692834
 H    3.176698888391    6.043167448410    0.292309692834
LI    2.552008888391    2.136527448410    0.160199692834
LI    0.035568888391    3.034947448410    0.061419692834
 O   -2.104473362078   -4.205956395436   -0.180237397005
 C   -1.562063397960   -5.360170791686   -0.196087520457
 N   -2.330504285056   -6.488577575757   -0.267149298520
 H   -3.340191238061   -6.369911675023   -0.306303775076
 C   -1.770687126639   -7.742843094298   -0.284744972489
 H   -2.458603020701   -8.586391011144   -0.342368186412
 C   -0.410940845606   -7.876924879375   -0.230183713107
 H    0.051210249132   -8.863259440468   -0.242704708536
 C    0.371952468303   -6.676281733604   -0.155792393384
 N    1.706870119082   -6.738304731985   -0.099093478832
 N   -0.210612112937   -5.452199649475   -0.140127371818
 H    2.261981037935   -5.893028290397   -0.045993313420
 H    2.190383431448   -7.628520492651   -0.106958758654
