28

 N    2.230093973352    6.287917942376    0.258552669131
 C    1.670283973352    7.542177942376    0.276152669131
 H    2.358193973352    8.385727942376    0.333772669131
 C    1.461663973352    5.159507942376    0.187492669131
 O    2.004073973352    4.005297942376    0.171642669131
 N    0.110203973352    5.251527942376    0.131522669131
 C   -0.472356026648    6.475607942376    0.147192669131
 N   -1.807276026648    6.537627942376    0.090482669131
 H   -2.362386026648    5.692357942376    0.037382669131
 H   -2.290796026648    7.427847942376    0.098352669131
 C    0.310533973352    7.676257942376    0.221582669131
 H   -0.151626026648    8.662587942376    0.234102669131
 H    3.239783973352    6.169247942376    0.297712669131
LI    2.615093973352    2.262607942376    0.165602669131
LI    0.098653973352    3.161027942376    0.066822669131
 O   -2.175530208057   -4.347969079516   -0.186323121622
 C   -1.633120243939   -5.502183475767   -0.202173245075
 N   -2.401561131035   -6.630590259838   -0.273235023138
 H   -3.411248084040   -6.511924359104   -0.312389499694
 C   -1.841743972619   -7.884855778379   -0.290830697107
 H   -2.529659866680   -8.728403695225   -0.348453911029
 C   -0.481997691585   -8.018937563456   -0.236269437725
 H   -0.019846596847   -9.005272124549   -0.248790433153
 C    0.300895622324   -6.818294417685   -0.161878118002
 N    1.635813273103   -6.880317416066   -0.105179203449
 N   -0.281668958916   -5.594212333556   -0.146213096436
 H    2.190924191956   -6.035040974478   -0.052079038038
 H    2.119326585469   -7.770533176731   -0.113044483272
