28

 N    2.335235781619    6.498052098985    0.267557629626
 C    1.775425781619    7.752312098985    0.285157629626
 H    2.463335781619    8.595862098985    0.342777629626
 C    1.566805781619    5.369642098985    0.196497629626
 O    2.109215781619    4.215432098985    0.180647629626
 N    0.215345781619    5.461662098985    0.140527629626
 C   -0.367214218381    6.685742098985    0.156197629626
 N   -1.702134218381    6.747762098985    0.099487629626
 H   -2.257244218381    5.902492098985    0.046387629626
 H   -2.185654218381    7.637982098985    0.107357629626
 C    0.415675781619    7.886392098985    0.230587629626
 H   -0.046484218381    8.872722098985    0.243107629626
 H    3.344925781619    6.379382098985    0.306717629626
LI    2.720235781619    2.472742098985    0.174607629626
LI    0.203795781619    3.371162098985    0.075827629626
 O   -2.293958284689   -4.584656886318   -0.196465995985
 C   -1.751548320571   -5.738871282568   -0.212316119438
 N   -2.519989207667   -6.867278066639   -0.283377897501
 H   -3.529676160672   -6.748612165905   -0.322532374057
 C   -1.960172049250   -8.121543585180   -0.300973571470
 H   -2.648087943312   -8.965091502026   -0.358596785392
 C   -0.600425768217   -8.255625370257   -0.246412312088
 H   -0.138274673479   -9.241959931350   -0.258933307516
 C    0.182467545692   -7.054982224486   -0.172020992365
 N    1.517385196471   -7.117005222867   -0.115322077812
 N   -0.400097035548   -5.830900140358   -0.156355970799
 H    2.072496115324   -6.271728781279   -0.062221912401
 H    2.000898508837   -8.007220983533   -0.123187357635
