28

 N    2.419349228233    6.666159424273    0.274761598022
 C    1.859539228233    7.920419424273    0.292361598022
 H    2.547449228233    8.763969424273    0.349981598022
 C    1.650919228233    5.537749424273    0.203701598022
 O    2.193329228233    4.383539424273    0.187851598022
 N    0.299459228233    5.629769424273    0.147731598022
 C   -0.283100771767    6.853849424273    0.163401598022
 N   -1.618020771767    6.915869424273    0.106691598022
 H   -2.173130771767    6.070599424273    0.053591598022
 H   -2.101540771767    7.806089424273    0.114561598022
 C    0.499789228233    8.054499424273    0.237791598022
 H    0.037629228233    9.040829424273    0.250311598022
 H    3.429039228233    6.547489424273    0.313921598022
LI    2.804349228233    2.640849424273    0.181811598022
LI    0.287909228233    3.539269424273    0.083031598022
 O   -2.388700745995   -4.774007131759   -0.204580295476
 C   -1.846290781876   -5.928221528009   -0.220430418929
 N   -2.614731668972   -7.056628312080   -0.291492196991
 H   -3.624418621977   -6.937962411346   -0.330646673547
 C   -2.054914510556   -8.310893830621   -0.309087870960
 H   -2.742830404617   -9.154441747467   -0.366711084883
 C   -0.695168229522   -8.444975615698   -0.254526611578
 H   -0.233017134785   -9.431310176791   -0.267047607007
 C    0.087725084387   -7.244332469927   -0.180135291855
 N    1.422642735165   -7.306355468308   -0.123436377303
 N   -0.494839496853   -6.020250385799   -0.164470270289
 H    1.977753654019   -6.461079026721   -0.070336211891
 H    1.906156047532   -8.196571228974   -0.131301657125
