28

 N    2.482434313193    6.792239918239    0.280164574319
 C    1.922624313193    8.046499918239    0.297764574319
 H    2.610534313193    8.890049918239    0.355384574319
 C    1.714004313193    5.663829918239    0.209104574319
 O    2.256414313193    4.509619918239    0.193254574319
 N    0.362544313193    5.755849918239    0.153134574319
 C   -0.220015686807    6.979929918239    0.168804574319
 N   -1.554935686807    7.041949918239    0.112094574319
 H   -2.110045686807    6.196679918239    0.058994574319
 H   -2.038455686807    7.932169918239    0.119964574319
 C    0.562874313193    8.180579918239    0.243194574319
 H    0.100714313193    9.166909918239    0.255714574319
 H    3.492124313193    6.673569918239    0.319324574319
LI    2.867434313193    2.766929918239    0.187214574319
LI    0.350994313193    3.665349918239    0.088434574319
 O   -2.459757591974   -4.916019815840   -0.210666020093
 C   -1.917347627855   -6.070234212090   -0.226516143546
 N   -2.685788514951   -7.198640996161   -0.297577921609
 H   -3.695475467956   -7.079975095427   -0.336732398165
 C   -2.125971356535   -8.452906514702   -0.315173595578
 H   -2.813887250596   -9.296454431548   -0.372796809500
 C   -0.766225075501   -8.586988299779   -0.260612336196
 H   -0.304073980764   -9.573322860872   -0.273133331624
 C    0.016668238407   -7.386345154008   -0.186221016473
 N    1.351585889186   -7.448368152389   -0.129522101921
 N   -0.565896342832   -6.162263069880   -0.170555994907
 H    1.906696808039   -6.603091710801   -0.076421936509
 H    1.835099201553   -8.338583913055   -0.137387381743
