28

 N    2.503462674847    6.834266749561    0.281965566417
 C    1.943652674847    8.088526749561    0.299565566417
 H    2.631562674847    8.932076749561    0.357185566417
 C    1.735032674847    5.705856749561    0.210905566417
 O    2.277442674847    4.551646749561    0.195055566417
 N    0.383572674847    5.797876749561    0.154935566417
 C   -0.198987325153    7.021956749561    0.170605566417
 N   -1.533907325153    7.083976749561    0.113895566417
 H   -2.089017325153    6.238706749561    0.060795566417
 H   -2.017427325153    7.974196749561    0.121765566417
 C    0.583902674847    8.222606749561    0.244995566417
 H    0.121742674847    9.208936749561    0.257515566417
 H    3.513152674847    6.715596749561    0.321125566417
LI    2.888462674847    2.808956749561    0.189015566417
LI    0.372022674847    3.707376749561    0.090235566417
 O   -2.483443207300   -4.963357377200   -0.212694594966
 C   -1.941033243182   -6.117571773450   -0.228544718419
 N   -2.709474130278   -7.245978557521   -0.299606496481
 H   -3.719161083283   -7.127312656787   -0.338760973038
 C   -2.149656971861   -8.500244076062   -0.317202170450
 H   -2.837572865923   -9.343791992908   -0.374825384373
 C   -0.789910690828   -8.634325861139   -0.262640911068
 H   -0.327759596090   -9.620660422232   -0.275161906497
 C   -0.007017376919   -7.433682715368   -0.188249591346
 N    1.327900273860   -7.495705713749   -0.131550676793
 N   -0.589581958159   -6.209600631240   -0.172584569780
 H    1.883011192713   -6.650429272162   -0.078450511381
 H    1.811413586226   -8.385921474415   -0.139415956616
