28

 N    2.566547759807    6.960347243526    0.287368542714
 C    2.006737759807    8.214607243526    0.304968542714
 H    2.694647759807    9.058157243526    0.362588542714
 C    1.798117759807    5.831937243526    0.216308542714
 O    2.340527759807    4.677727243526    0.200458542714
 N    0.446657759807    5.923957243526    0.160338542714
 C   -0.135902240193    7.148037243526    0.176008542714
 N   -1.470822240193    7.210057243526    0.119298542714
 H   -2.025932240193    6.364787243526    0.066198542714
 H   -1.954342240193    8.100277243526    0.127168542714
 C    0.646987759807    8.348687243526    0.250398542714
 H    0.184827759807    9.335017243526    0.262918542714
 H    3.576237759807    6.841677243526    0.326528542714
LI    2.951547759807    2.935037243526    0.194418542714
LI    0.435107759807    3.833457243526    0.095638542714
 O   -2.554500053279   -5.105370061281   -0.218780319584
 C   -2.012090089161   -6.259584457531   -0.234630443037
 N   -2.780530976257   -7.387991241602   -0.305692221099
 H   -3.790217929262   -7.269325340868   -0.344846697655
 C   -2.220713817841   -8.642256760143   -0.323287895068
 H   -2.908629711902   -9.485804676989   -0.380911108991
 C   -0.860967536807   -8.776338545220   -0.268726635686
 H   -0.398816442069   -9.762673106313   -0.281247631115
 C   -0.078074222898   -7.575695399449   -0.194335315964
 N    1.256843427881   -7.637718397830   -0.137636401411
 N   -0.660638804138   -6.351613315321   -0.178670294398
 H    1.811954346734   -6.792441956242   -0.084536235999
 H    1.740356740247   -8.527934158496   -0.145501681233
