28

 N    2.587576121461    7.002374074848    0.289169534813
 C    2.027766121461    8.256634074848    0.306769534813
 H    2.715676121461    9.100184074848    0.364389534813
 C    1.819146121461    5.873964074848    0.218109534813
 O    2.361556121461    4.719754074848    0.202259534813
 N    0.467686121461    5.965984074848    0.162139534813
 C   -0.114873878539    7.190064074848    0.177809534813
 N   -1.449793878539    7.252084074848    0.121099534813
 H   -2.004903878539    6.406814074848    0.067999534813
 H   -1.933313878539    8.142304074848    0.128969534813
 C    0.668016121461    8.390714074848    0.252199534813
 H    0.205856121461    9.377044074848    0.264719534813
 H    3.597266121461    6.883704074848    0.328329534813
LI    2.972576121461    2.977064074848    0.196219534813
LI    0.456136121461    3.875484074848    0.097439534813
 O   -2.578185668606   -5.152707622641   -0.220808894456
 C   -2.035775704487   -6.306922018892   -0.236659017909
 N   -2.804216591583   -7.435328802963   -0.307720795972
 H   -3.813903544588   -7.316662902229   -0.346875272528
 C   -2.244399433167   -8.689594321503   -0.325316469941
 H   -2.932315327228   -9.533142238349   -0.382939683863
 C   -0.884653152133   -8.823676106580   -0.270755210559
 H   -0.422502057396   -9.810010667673   -0.283276205987
 C   -0.101759838225   -7.623032960809   -0.196363890836
 N    1.233157812554   -7.685055959190   -0.139664976284
 N   -0.684324419464   -6.398950876681   -0.180698869270
 H    1.788268731407   -6.839779517603   -0.086564810872
 H    1.716671124921   -8.575271719856   -0.147530256106
