28

 N    2.608604483114    7.044400906170    0.290970526912
 C    2.048794483114    8.298660906170    0.308570526912
 H    2.736704483114    9.142210906170    0.366190526912
 C    1.840174483114    5.915990906170    0.219910526912
 O    2.382584483114    4.761780906170    0.204060526912
 N    0.488714483114    6.008010906170    0.163940526912
 C   -0.093845516886    7.232090906170    0.179610526912
 N   -1.428765516886    7.294110906170    0.122900526912
 H   -1.983875516886    6.448840906170    0.069800526912
 H   -1.912285516886    8.184330906170    0.130770526912
 C    0.689044483114    8.432740906170    0.254000526912
 H    0.226884483114    9.419070906170    0.266520526912
 H    3.618294483114    6.925730906170    0.330130526912
LI    2.993604483114    3.019090906170    0.198020526912
LI    0.477164483114    3.917510906170    0.099240526912
 O   -2.601871283932   -5.200045184001   -0.222837469329
 C   -2.059461319814   -6.354259580252   -0.238687592782
 N   -2.827902206910   -7.482666364323   -0.309749370844
 H   -3.837589159915   -7.364000463589   -0.348903847401
 C   -2.268085048493   -8.736931882864   -0.327345044813
 H   -2.956000942555   -9.580479799710   -0.384968258736
 C   -0.908338767460   -8.871013667941   -0.272783785431
 H   -0.446187672722   -9.857348229034   -0.285304780860
 C   -0.125445453551   -7.670370522170   -0.198392465709
 N    1.209472197228   -7.732393520551   -0.141693551156
 N   -0.708010034791   -6.446288438041   -0.182727444143
 H    1.764583116081   -6.887117078963   -0.088593385744
 H    1.692985509594   -8.622609281216   -0.149558830978
