28

 N    2.650661206421    7.128454568814    0.294572511110
 C    2.090851206421    8.382714568814    0.312172511110
 H    2.778761206421    9.226264568814    0.369792511110
 C    1.882231206421    6.000044568814    0.223512511110
 O    2.424641206421    4.845834568814    0.207662511110
 N    0.530771206421    6.092064568814    0.167542511110
 C   -0.051788793579    7.316144568814    0.183212511110
 N   -1.386708793579    7.378164568814    0.126502511110
 H   -1.941818793579    6.532894568814    0.073402511110
 H   -1.870228793579    8.268384568814    0.134372511110
 C    0.731101206421    8.516794568814    0.257602511110
 H    0.268941206421    9.503124568814    0.270122511110
 H    3.660351206421    7.009784568814    0.333732511110
LI    3.035661206421    3.103144568814    0.201622511110
LI    0.519221206421    4.001564568814    0.102842511110
 O   -2.649242514585   -5.294720306722   -0.226894619074
 C   -2.106832550466   -6.448934702972   -0.242744742527
 N   -2.875273437562   -7.577341487043   -0.313806520590
 H   -3.884960390568   -7.458675586309   -0.352960997146
 C   -2.315456279146   -8.831607005584   -0.331402194559
 H   -3.003372173207   -9.675154922430   -0.389025408481
 C   -0.955709998112   -8.965688790661   -0.276840935176
 H   -0.493558903375   -9.952023351754   -0.289361930605
 C   -0.172816684204   -7.765045644890   -0.202449615454
 N    1.162100966575   -7.827068643271   -0.145750700901
 N   -0.755381265443   -6.540963560762   -0.186784593888
 H    1.717211885428   -6.981792201684   -0.092650535489
 H    1.645614278942   -8.717284403937   -0.153615980724
