8

 C    0.820548677696   -1.279880107509    0.000000000000
 H    1.856048677696   -1.655968107509    0.000000000000
 H    0.287348677696   -1.660583107509    0.888337000000
 H    0.287348677696   -1.660583107509   -0.888337000000
 C    0.778782677696    0.276203892491    0.000000000000
 O   -0.388413322304    0.782426892491    0.000000000000
 O    1.902853677696    0.871621892491    0.000000000000
NA   -1.995021636893   -0.408711102660    0.000000000000
