8

 C    0.865590348513   -1.246486252275    0.000000000000
 H    1.901090348513   -1.622574252275    0.000000000000
 H    0.332390348513   -1.627189252275    0.888337000000
 H    0.332390348513   -1.627189252275   -0.888337000000
 C    0.823824348513    0.309597747725    0.000000000000
 O   -0.343371651487    0.815820747725    0.000000000000
 O    1.947895348513    0.905015747725    0.000000000000
NA   -2.110640797535   -0.494431046941    0.000000000000
