8

 C    0.910632019331   -1.213092397041    0.000000000000
 H    1.946132019331   -1.589180397041    0.000000000000
 H    0.377432019331   -1.593795397041    0.888337000000
 H    0.377432019331   -1.593795397041   -0.888337000000
 C    0.868866019331    0.342991602959    0.000000000000
 O   -0.298329980669    0.849214602959    0.000000000000
 O    1.992937019331    0.938409602959    0.000000000000
NA   -2.226259958177   -0.580150991222    0.000000000000
