8

 C    1.000715360965   -1.146304686572    0.000000000000
 H    2.036215360965   -1.522392686572    0.000000000000
 H    0.467515360965   -1.527007686572    0.888337000000
 H    0.467515360965   -1.527007686572   -0.888337000000
 C    0.958949360965    0.409779313428    0.000000000000
 O   -0.208246639035    0.916002313428    0.000000000000
 O    2.083020360965    1.005197313428    0.000000000000
NA   -2.457498279460   -0.751590879783    0.000000000000
