8

 C    1.158361208825   -1.029426193253    0.000000000000
 H    2.193861208825   -1.405514193253    0.000000000000
 H    0.625161208825   -1.410129193253    0.888337000000
 H    0.625161208825   -1.410129193253   -0.888337000000
 C    1.116595208825    0.526657806747    0.000000000000
 O   -0.050600791175    1.032880806747    0.000000000000
 O    2.240666208825    1.122075806747    0.000000000000
NA   -2.862165341706   -1.051610684766    0.000000000000
