8

 C    1.270965385868   -0.945941555167    0.000000000000
 H    2.306465385868   -1.322029555167    0.000000000000
 H    0.737765385868   -1.326644555167    0.888337000000
 H    0.737765385868   -1.326644555167   -0.888337000000
 C    1.229199385868    0.610142444833    0.000000000000
 O    0.062003385868    1.116365444833    0.000000000000
 O    2.353270385868    1.205560444833    0.000000000000
NA   -3.151213243311   -1.265910545469    0.000000000000
