8

 C    1.316007056686   -0.912547699933    0.000000000000
 H    2.351507056686   -1.288635699933    0.000000000000
 H    0.782807056686   -1.293250699933    0.888337000000
 H    0.782807056686   -1.293250699933   -0.888337000000
 C    1.274241056686    0.643536300067    0.000000000000
 O    0.107045056686    1.149759300067    0.000000000000
 O    2.398312056686    1.238954300067    0.000000000000
NA   -3.266832403952   -1.351630489749    0.000000000000
