8

 C    1.361048727503   -0.879153844699    0.000000000000
 H    2.396548727503   -1.255241844699    0.000000000000
 H    0.827848727503   -1.259856844699    0.888337000000
 H    0.827848727503   -1.259856844699   -0.888337000000
 C    1.319282727503    0.676930155301    0.000000000000
 O    0.152086727503    1.183153155301    0.000000000000
 O    2.443353727503    1.272348155301    0.000000000000
NA   -3.382451564594   -1.437350434030    0.000000000000
