8

 C    1.451132069137   -0.812366134230    0.000000000000
 H    2.486632069137   -1.188454134230    0.000000000000
 H    0.917932069137   -1.193069134230    0.888337000000
 H    0.917932069137   -1.193069134230   -0.888337000000
 C    1.409366069137    0.743717865770    0.000000000000
 O    0.242170069137    1.249940865770    0.000000000000
 O    2.533437069137    1.339135865770    0.000000000000
NA   -3.613689885878   -1.608790322592    0.000000000000
