8

 C    1.473652904546   -0.795669206613    0.000000000000
 H    2.509152904546   -1.171757206613    0.000000000000
 H    0.940452904546   -1.176372206613    0.888337000000
 H    0.940452904546   -1.176372206613   -0.888337000000
 C    1.431886904546    0.760414793387    0.000000000000
 O    0.264690904546    1.266637793387    0.000000000000
 O    2.555957904546    1.355832793387    0.000000000000
NA   -3.671499466198   -1.651650294733    0.000000000000
