8

 C    1.518694575363   -0.762275351379    0.000000000000
 H    2.554194575363   -1.138363351379    0.000000000000
 H    0.985494575363   -1.142978351379    0.888337000000
 H    0.985494575363   -1.142978351379   -0.888337000000
 C    1.476928575363    0.793808648621    0.000000000000
 O    0.309732575363    1.300031648621    0.000000000000
 O    2.600999575363    1.389226648621    0.000000000000
NA   -3.787118626840   -1.737370239013    0.000000000000
