8

 C    1.631298752406   -0.678790713294    0.000000000000
 H    2.666798752406   -1.054878713294    0.000000000000
 H    1.098098752406   -1.059493713294    0.888337000000
 H    1.098098752406   -1.059493713294   -0.888337000000
 C    1.589532752406    0.877293286706    0.000000000000
 O    0.422336752406    1.383516286706    0.000000000000
 O    2.713603752406    1.472711286706    0.000000000000
NA   -4.076166528444   -1.951670099716    0.000000000000
