8

 C    1.653819587815   -0.662093785676    0.000000000000
 H    2.689319587815   -1.038181785676    0.000000000000
 H    1.120619587815   -1.042796785676    0.888337000000
 H    1.120619587815   -1.042796785676   -0.888337000000
 C    1.612053587815    0.893990214324    0.000000000000
 O    0.444857587815    1.400213214324    0.000000000000
 O    2.736124587815    1.489408214324    0.000000000000
NA   -4.133976108765   -1.994530071856    0.000000000000
