8

 C    1.676340423224   -0.645396858059    0.000000000000
 H    2.711840423224   -1.021484858059    0.000000000000
 H    1.143140423224   -1.026099858059    0.888337000000
 H    1.143140423224   -1.026099858059   -0.888337000000
 C    1.634574423224    0.910687141941    0.000000000000
 O    0.467378423224    1.416910141941    0.000000000000
 O    2.758645423224    1.506105141941    0.000000000000
NA   -4.191785689086   -2.037390043996    0.000000000000
