8

 C    1.698861258632   -0.628699930442    0.000000000000
 H    2.734361258632   -1.004787930442    0.000000000000
 H    1.165661258632   -1.009402930442    0.888337000000
 H    1.165661258632   -1.009402930442   -0.888337000000
 C    1.657095258632    0.927384069558    0.000000000000
 O    0.489899258632    1.433607069558    0.000000000000
 O    2.781166258632    1.522802069558    0.000000000000
NA   -4.249595269407   -2.080250016137    0.000000000000
