8

 C    1.743902929449   -0.595306075208    0.000000000000
 H    2.779402929449   -0.971394075208    0.000000000000
 H    1.210702929449   -0.976009075208    0.888337000000
 H    1.210702929449   -0.976009075208   -0.888337000000
 C    1.702136929449    0.960777924792    0.000000000000
 O    0.534940929449    1.467000924792    0.000000000000
 O    2.826207929449    1.556195924792    0.000000000000
NA   -4.365214430049   -2.165969960418    0.000000000000
