8

 C    1.766423764858   -0.578609147591    0.000000000000
 H    2.801923764858   -0.954697147591    0.000000000000
 H    1.233223764858   -0.959312147591    0.888337000000
 H    1.233223764858   -0.959312147591   -0.888337000000
 C    1.724657764858    0.977474852409    0.000000000000
 O    0.557461764858    1.483697852409    0.000000000000
 O    2.848728764858    1.572892852409    0.000000000000
NA   -4.423024010370   -2.208829932558    0.000000000000
