8

 C    1.788944600267   -0.561912219974    0.000000000000
 H    2.824444600267   -0.938000219974    0.000000000000
 H    1.255744600267   -0.942615219974    0.888337000000
 H    1.255744600267   -0.942615219974   -0.888337000000
 C    1.747178600267    0.994171780026    0.000000000000
 O    0.579982600267    1.500394780026    0.000000000000
 O    2.871249600267    1.589589780026    0.000000000000
NA   -4.480833590690   -2.251689904699    0.000000000000
