8

 C    1.811465435675   -0.545215292357    0.000000000000
 H    2.846965435675   -0.921303292357    0.000000000000
 H    1.278265435675   -0.925918292357    0.888337000000
 H    1.278265435675   -0.925918292357   -0.888337000000
 C    1.769699435675    1.010868707643    0.000000000000
 O    0.602503435675    1.517091707643    0.000000000000
 O    2.893770435675    1.606286707643    0.000000000000
NA   -4.538643171011   -2.294549876839    0.000000000000
