8

 C    1.833986271084   -0.528518364740    0.000000000000
 H    2.869486271084   -0.904606364740    0.000000000000
 H    1.300786271084   -0.909221364740    0.888337000000
 H    1.300786271084   -0.909221364740   -0.888337000000
 C    1.792220271084    1.027565635260    0.000000000000
 O    0.625024271084    1.533788635260    0.000000000000
 O    2.916291271084    1.622983635260    0.000000000000
NA   -4.596452751332   -2.337409848979    0.000000000000
