8

 C    1.924069612718   -0.461730654271    0.000000000000
 H    2.959569612718   -0.837818654271    0.000000000000
 H    1.390869612718   -0.842433654271    0.888337000000
 H    1.390869612718   -0.842433654271   -0.888337000000
 C    1.882303612718    1.094353345729    0.000000000000
 O    0.715107612718    1.600576345729    0.000000000000
 O    3.006374612718    1.689771345729    0.000000000000
NA   -4.827691072616   -2.508849737541    0.000000000000
