8

 C    1.946590448127   -0.445033726654    0.000000000000
 H    2.982090448127   -0.821121726654    0.000000000000
 H    1.413390448127   -0.825736726654    0.888337000000
 H    1.413390448127   -0.825736726654   -0.888337000000
 C    1.904824448127    1.111050273346    0.000000000000
 O    0.737628448127    1.617273273346    0.000000000000
 O    3.028895448127    1.706468273346    0.000000000000
NA   -4.885500652936   -2.551709709682    0.000000000000
