8

 C    1.969111283536   -0.428336799037    0.000000000000
 H    3.004611283536   -0.804424799037    0.000000000000
 H    1.435911283536   -0.809039799037    0.888337000000
 H    1.435911283536   -0.809039799037   -0.888337000000
 C    1.927345283536    1.127747200963    0.000000000000
 O    0.760149283536    1.633970200963    0.000000000000
 O    3.051416283536    1.723165200963    0.000000000000
NA   -4.943310233257   -2.594569681822    0.000000000000
