8

 C    1.991632118944   -0.411639871420    0.000000000000
 H    3.027132118944   -0.787727871420    0.000000000000
 H    1.458432118944   -0.792342871420    0.888337000000
 H    1.458432118944   -0.792342871420   -0.888337000000
 C    1.949866118944    1.144444128580    0.000000000000
 O    0.782670118944    1.650667128580    0.000000000000
 O    3.073937118944    1.739862128580    0.000000000000
NA   -5.001119813578   -2.637429653962    0.000000000000
