8

 C    2.036673789761   -0.378246016186    0.000000000000
 H    3.072173789761   -0.754334016186    0.000000000000
 H    1.503473789761   -0.758949016186    0.888337000000
 H    1.503473789761   -0.758949016186   -0.888337000000
 C    1.994907789761    1.177837983814    0.000000000000
 O    0.827711789761    1.684060983814    0.000000000000
 O    3.118978789761    1.773255983814    0.000000000000
NA   -5.116738974220   -2.723149598243    0.000000000000
