8

 C    2.059194625170   -0.361549088569    0.000000000000
 H    3.094694625170   -0.737637088569    0.000000000000
 H    1.525994625170   -0.742252088569    0.888337000000
 H    1.525994625170   -0.742252088569   -0.888337000000
 C    2.017428625170    1.194534911431    0.000000000000
 O    0.850232625170    1.700757911431    0.000000000000
 O    3.141499625170    1.789952911431    0.000000000000
NA   -5.174548554541   -2.766009570384    0.000000000000
