8

 C    2.081715460579   -0.344852160951    0.000000000000
 H    3.117215460579   -0.720940160951    0.000000000000
 H    1.548515460579   -0.725555160951    0.888337000000
 H    1.548515460579   -0.725555160951   -0.888337000000
 C    2.039949460579    1.211231839049    0.000000000000
 O    0.872753460579    1.717454839049    0.000000000000
 O    3.164020460579    1.806649839049    0.000000000000
NA   -5.232358134862   -2.808869542524    0.000000000000
