8

 C    2.126757131396   -0.311458305717    0.000000000000
 H    3.162257131396   -0.687546305717    0.000000000000
 H    1.593557131396   -0.692161305717    0.888337000000
 H    1.593557131396   -0.692161305717   -0.888337000000
 C    2.084991131396    1.244625694283    0.000000000000
 O    0.917795131396    1.750848694283    0.000000000000
 O    3.209062131396    1.840043694283    0.000000000000
NA   -5.347977295503   -2.894589486805    0.000000000000
