8

 C    2.149277966805   -0.294761378100    0.000000000000
 H    3.184777966805   -0.670849378100    0.000000000000
 H    1.616077966805   -0.675464378100    0.888337000000
 H    1.616077966805   -0.675464378100   -0.888337000000
 C    2.107511966805    1.261322621900    0.000000000000
 O    0.940315966805    1.767545621900    0.000000000000
 O    3.231582966805    1.856740621900    0.000000000000
NA   -5.405786875824   -2.937449458945    0.000000000000
