8

 C    2.239361308439   -0.227973667632    0.000000000000
 H    3.274861308439   -0.604061667632    0.000000000000
 H    1.706161308439   -0.608676667632    0.888337000000
 H    1.706161308439   -0.608676667632   -0.888337000000
 C    2.197595308439    1.328110332368    0.000000000000
 O    1.030399308439    1.834333332368    0.000000000000
 O    3.321666308439    1.923528332368    0.000000000000
NA   -5.637025197108   -3.108889347507    0.000000000000
