8

 C    2.284402979256   -0.194579812398    0.000000000000
 H    3.319902979256   -0.570667812398    0.000000000000
 H    1.751202979256   -0.575282812398    0.888337000000
 H    1.751202979256   -0.575282812398   -0.888337000000
 C    2.242636979256    1.361504187602    0.000000000000
 O    1.075440979256    1.867727187602    0.000000000000
 O    3.366707979256    1.956922187602    0.000000000000
NA   -5.752644357749   -3.194609291788    0.000000000000
