8

 C    2.306923814665   -0.177882884780    0.000000000000
 H    3.342423814665   -0.553970884780    0.000000000000
 H    1.773723814665   -0.558585884780    0.888337000000
 H    1.773723814665   -0.558585884780   -0.888337000000
 C    2.265157814665    1.378201115220    0.000000000000
 O    1.097961814665    1.884424115220    0.000000000000
 O    3.389228814665    1.973619115220    0.000000000000
NA   -5.810453938070   -3.237469263929    0.000000000000
