8

 C    2.329444650073   -0.161185957163    0.000000000000
 H    3.364944650073   -0.537273957163    0.000000000000
 H    1.796244650073   -0.541888957163    0.888337000000
 H    1.796244650073   -0.541888957163   -0.888337000000
 C    2.287678650073    1.394898042837    0.000000000000
 O    1.120482650073    1.901121042837    0.000000000000
 O    3.411749650073    1.990316042837    0.000000000000
NA   -5.868263518391   -3.280329236069    0.000000000000
