8

 C    2.397007156299   -0.111095174312    0.000000000000
 H    3.432507156299   -0.487183174312    0.000000000000
 H    1.863807156299   -0.491798174312    0.888337000000
 H    1.863807156299   -0.491798174312   -0.888337000000
 C    2.355241156299    1.444988825688    0.000000000000
 O    1.188045156299    1.951211825688    0.000000000000
 O    3.479312156299    2.040406825688    0.000000000000
NA   -6.041692259354   -3.408909152490    0.000000000000
