8

 C    2.442048827117   -0.077701319078    0.000000000000
 H    3.477548827117   -0.453789319078    0.000000000000
 H    1.908848827117   -0.458404319078    0.888337000000
 H    1.908848827117   -0.458404319078   -0.888337000000
 C    2.400282827117    1.478382680922    0.000000000000
 O    1.233086827117    1.984605680922    0.000000000000
 O    3.524353827117    2.073800680922    0.000000000000
NA   -6.157311419995   -3.494629096771    0.000000000000
