8

 C    2.509611333342   -0.027610536226    0.000000000000
 H    3.545111333342   -0.403698536226    0.000000000000
 H    1.976411333342   -0.408313536226    0.888337000000
 H    1.976411333342   -0.408313536226   -0.888337000000
 C    2.467845333342    1.528473463774    0.000000000000
 O    1.300649333342    2.034696463774    0.000000000000
 O    3.591916333342    2.123891463774    0.000000000000
NA   -6.330740160958   -3.623209013192    0.000000000000
