8

 C    2.577173839568    0.022480246625    0.000000000000
 H    3.612673839568   -0.353607753375    0.000000000000
 H    2.043973839568   -0.358222753375    0.888337000000
 H    2.043973839568   -0.358222753375   -0.888337000000
 C    2.535407839568    1.578564246625    0.000000000000
 O    1.368211839568    2.084787246625    0.000000000000
 O    3.659478839568    2.173982246625    0.000000000000
NA   -6.504168901921   -3.751788929614    0.000000000000
