13

 H    0.080482548864    3.435415787205    0.000000000000
 H    1.623822548864    3.556115787205    0.906310000000
 H    1.623822548864    3.556115787205   -0.906310000000
 C    1.145022548864    3.170865787205    0.000000000000
 S    1.224322548864    1.347215787205    0.000000000000
 H    2.551072548864    1.134975787205    0.000000000000
NA   -0.327617451136   -0.360504212795    0.000000000000
 S   -1.067418474290   -1.174564681151    0.000000000000
 H   -2.394168847958   -0.962319185625    0.000000000000
 C   -0.988121970526   -2.998211494926    0.000000000000
 H    0.076409827260   -3.262755630376    0.000000000000
 H   -1.466928800992   -3.383454444909   -0.906311584935
 H   -1.466928800992   -3.383454444909    0.906311584935
