13

 H    0.134743792846    3.495123644192    0.000000000000
 H    1.678083792846    3.615823644192    0.906310000000
 H    1.678083792846    3.615823644192   -0.906310000000
 C    1.199283792846    3.230573644192    0.000000000000
 S    1.278583792846    1.406923644192    0.000000000000
 H    2.605333792846    1.194683644192    0.000000000000
NA   -0.273356207154   -0.300796355808    0.000000000000
 S   -1.147666507245   -1.262867818411    0.000000000000
 H   -2.474416880913   -1.050622322885    0.000000000000
 C   -1.068370003482   -3.086514632186    0.000000000000
 H   -0.003838205695   -3.351058767636    0.000000000000
 H   -1.547176833948   -3.471757582168   -0.906311584935
 H   -1.547176833948   -3.471757582168    0.906311584935
