13

 H    0.161874414837    3.524977572685    0.000000000000
 H    1.705214414837    3.645677572685    0.906310000000
 H    1.705214414837    3.645677572685   -0.906310000000
 C    1.226414414837    3.260427572685    0.000000000000
 S    1.305714414837    1.436777572685    0.000000000000
 H    2.632464414837    1.224537572685    0.000000000000
NA   -0.246225585163   -0.270942427315    0.000000000000
 S   -1.187790523723   -1.307019387041    0.000000000000
 H   -2.514540897391   -1.094773891514    0.000000000000
 C   -1.108494019959   -3.130666200815    0.000000000000
 H   -0.043962222173   -3.395210336266    0.000000000000
 H   -1.587300850425   -3.515909150798   -0.906311584935
 H   -1.587300850425   -3.515909150798    0.906311584935
