13

 H    0.270396902800    3.644393286659    0.000000000000
 H    1.813736902800    3.765093286659    0.906310000000
 H    1.813736902800    3.765093286659   -0.906310000000
 C    1.334936902800    3.379843286659    0.000000000000
 S    1.414236902800    1.556193286659    0.000000000000
 H    2.740986902800    1.343953286659    0.000000000000
NA   -0.137703097200   -0.151526713341    0.000000000000
 S   -1.348286589634   -1.483625661560    0.000000000000
 H   -2.675036963302   -1.271380166034    0.000000000000
 C   -1.268990085870   -3.307272475335    0.000000000000
 H   -0.204458288084   -3.571816610785    0.000000000000
 H   -1.747796916336   -3.692515425318   -0.906311584935
 H   -1.747796916336   -3.692515425318    0.906311584935
