13

 H    0.297527524791    3.674247215153    0.000000000000
 H    1.840867524791    3.794947215153    0.906310000000
 H    1.840867524791    3.794947215153   -0.906310000000
 C    1.362067524791    3.409697215153    0.000000000000
 S    1.441367524791    1.586047215153    0.000000000000
 H    2.768117524791    1.373807215153    0.000000000000
NA   -0.110572475209   -0.121672784847    0.000000000000
 S   -1.388410606112   -1.527777230190    0.000000000000
 H   -2.715160979780   -1.315531734664    0.000000000000
 C   -1.309114102348   -3.351424043964    0.000000000000
 H   -0.244582304561   -3.615968179415    0.000000000000
 H   -1.787920932814   -3.736666993947   -0.906311584935
 H   -1.787920932814   -3.736666993947    0.906311584935
