13

 H    0.378919390763    3.763809000633    0.000000000000
 H    1.922259390763    3.884509000633    0.906310000000
 H    1.922259390763    3.884509000633   -0.906310000000
 C    1.443459390763    3.499259000633    0.000000000000
 S    1.522759390763    1.675609000633    0.000000000000
 H    2.849509390763    1.463369000633    0.000000000000
NA   -0.029180609237   -0.032110999367    0.000000000000
 S   -1.508782655545   -1.660231936079    0.000000000000
 H   -2.835533029213   -1.447986440553    0.000000000000
 C   -1.429486151781   -3.483878749854    0.000000000000
 H   -0.364954353995   -3.748422885304    0.000000000000
 H   -1.908292982247   -3.869121699837   -0.906311584935
 H   -1.908292982247   -3.869121699837    0.906311584935
