13

 H    0.433180634745    3.823516857620    0.000000000000
 H    1.976520634745    3.944216857620    0.906310000000
 H    1.976520634745    3.944216857620   -0.906310000000
 C    1.497720634745    3.558966857620    0.000000000000
 S    1.577020634745    1.735316857620    0.000000000000
 H    2.903770634745    1.523076857620    0.000000000000
NA    0.025080634745    0.027596857620    0.000000000000
 S   -1.589030688500   -1.748535073339    0.000000000000
 H   -2.915781062169   -1.536289577813    0.000000000000
 C   -1.509734184737   -3.572181887113    0.000000000000
 H   -0.445202386950   -3.836726022564    0.000000000000
 H   -1.988541015203   -3.957424837096   -0.906311584935
 H   -1.988541015203   -3.957424837096    0.906311584935
