13

 H    0.460311256736    3.853370786114    0.000000000000
 H    2.003651256736    3.974070786114    0.906310000000
 H    2.003651256736    3.974070786114   -0.906310000000
 C    1.524851256736    3.588820786114    0.000000000000
 S    1.604151256736    1.765170786114    0.000000000000
 H    2.930901256736    1.552930786114    0.000000000000
NA    0.052211256736    0.057450786114    0.000000000000
 S   -1.629154704978   -1.792686641969    0.000000000000
 H   -2.955905078646   -1.580441146442    0.000000000000
 C   -1.549858201214   -3.616333455743    0.000000000000
 H   -0.485326403428   -3.880877591194    0.000000000000
 H   -2.028665031680   -4.001576405726   -0.906311584935
 H   -2.028665031680   -4.001576405726    0.906311584935
