13

 H    0.568833744699    3.972786500087    0.000000000000
 H    2.112173744699    4.093486500087    0.906310000000
 H    2.112173744699    4.093486500087   -0.906310000000
 C    1.633373744699    3.708236500087    0.000000000000
 S    1.712673744699    1.884586500087    0.000000000000
 H    3.039423744699    1.672346500087    0.000000000000
NA    0.160733744699    0.176866500087    0.000000000000
 S   -1.789650770889   -1.969292916488    0.000000000000
 H   -3.116401144557   -1.757047420962    0.000000000000
 C   -1.710354267125   -3.792939730263    0.000000000000
 H   -0.645822469339   -4.057483865713    0.000000000000
 H   -2.189161097591   -4.178182680245   -0.906311584935
 H   -2.189161097591   -4.178182680245    0.906311584935
