13

 H    0.623094988681    4.032494357074    0.000000000000
 H    2.166434988681    4.153194357074    0.906310000000
 H    2.166434988681    4.153194357074   -0.906310000000
 C    1.687634988681    3.767944357074    0.000000000000
 S    1.766934988681    1.944294357074    0.000000000000
 H    3.093684988681    1.732054357074    0.000000000000
NA    0.214994988681    0.236574357074    0.000000000000
 S   -1.869898803844   -2.057596053747    0.000000000000
 H   -3.196649177513   -1.845350558221    0.000000000000
 C   -1.790602300081   -3.881242867522    0.000000000000
 H   -0.726070502294   -4.145787002973    0.000000000000
 H   -2.269409130547   -4.266485817505   -0.906311584935
 H   -2.269409130547   -4.266485817505    0.906311584935
