13

 H    0.650225610671    4.062348285568    0.000000000000
 H    2.193565610671    4.183048285568    0.906310000000
 H    2.193565610671    4.183048285568   -0.906310000000
 C    1.714765610671    3.797798285568    0.000000000000
 S    1.794065610671    1.974148285568    0.000000000000
 H    3.120815610671    1.761908285568    0.000000000000
NA    0.242125610671    0.266428285568    0.000000000000
 S   -1.910022820322   -2.101747622377    0.000000000000
 H   -3.236773193990   -1.889502126851    0.000000000000
 C   -1.830726316559   -3.925394436152    0.000000000000
 H   -0.766194518772   -4.189938571602    0.000000000000
 H   -2.309533147024   -4.310637386135   -0.906311584935
 H   -2.309533147024   -4.310637386135    0.906311584935
