13

 H    0.704486854653    4.122056142555    0.000000000000
 H    2.247826854653    4.242756142555    0.906310000000
 H    2.247826854653    4.242756142555   -0.906310000000
 C    1.769026854653    3.857506142555    0.000000000000
 S    1.848326854653    2.033856142555    0.000000000000
 H    3.175076854653    1.821616142555    0.000000000000
NA    0.296386854653    0.326136142555    0.000000000000
 S   -1.990270853278   -2.190050759637    0.000000000000
 H   -3.317021226946   -1.977805264111    0.000000000000
 C   -1.910974349514   -4.013697573412    0.000000000000
 H   -0.846442551727   -4.278241708862    0.000000000000
 H   -2.389781179980   -4.398940523395   -0.906311584935
 H   -2.389781179980   -4.398940523395    0.906311584935
