13

 H    0.731617476644    4.151910071048    0.000000000000
 H    2.274957476644    4.272610071048    0.906310000000
 H    2.274957476644    4.272610071048   -0.906310000000
 C    1.796157476644    3.887360071048    0.000000000000
 S    1.875457476644    2.063710071048    0.000000000000
 H    3.202207476644    1.851470071048    0.000000000000
NA    0.323517476644    0.355990071048    0.000000000000
 S   -2.030394869755   -2.234202328267    0.000000000000
 H   -3.357145243424   -2.021956832741    0.000000000000
 C   -1.951098365992   -4.057849142041    0.000000000000
 H   -0.886566568205   -4.322393277492    0.000000000000
 H   -2.429905196458   -4.443092092024   -0.906311584935
 H   -2.429905196458   -4.443092092024    0.906311584935
