13

 H    0.758748098635    4.181763999542    0.000000000000
 H    2.302088098635    4.302463999542    0.906310000000
 H    2.302088098635    4.302463999542   -0.906310000000
 C    1.823288098635    3.917213999542    0.000000000000
 S    1.902588098635    2.093563999542    0.000000000000
 H    3.229338098635    1.881323999542    0.000000000000
NA    0.350648098635    0.385843999542    0.000000000000
 S   -2.070518886233   -2.278353896897    0.000000000000
 H   -3.397269259901   -2.066108401370    0.000000000000
 C   -1.991222382469   -4.102000710671    0.000000000000
 H   -0.926690584683   -4.366544846122    0.000000000000
 H   -2.470029212935   -4.487243660654   -0.906311584935
 H   -2.470029212935   -4.487243660654    0.906311584935
