13

 H    0.867270586598    4.301179713516    0.000000000000
 H    2.410610586598    4.421879713516    0.906310000000
 H    2.410610586598    4.421879713516   -0.906310000000
 C    1.931810586598    4.036629713516    0.000000000000
 S    2.011110586598    2.212979713516    0.000000000000
 H    3.337860586598    2.000739713516    0.000000000000
NA    0.459170586598    0.505259713516    0.000000000000
 S   -2.231014952144   -2.454960171416    0.000000000000
 H   -3.557765325812   -2.242714675890    0.000000000000
 C   -2.151718448380   -4.278606985191    0.000000000000
 H   -1.087186650594   -4.543151120641    0.000000000000
 H   -2.630525278846   -4.663849935173   -0.906311584935
 H   -2.630525278846   -4.663849935173    0.906311584935
