13

 H    0.894401208589    4.331033642009    0.000000000000
 H    2.437741208589    4.451733642009    0.906310000000
 H    2.437741208589    4.451733642009   -0.906310000000
 C    1.958941208589    4.066483642009    0.000000000000
 S    2.038241208589    2.242833642009    0.000000000000
 H    3.364991208589    2.030593642009    0.000000000000
NA    0.486301208589    0.535113642009    0.000000000000
 S   -2.271138968622   -2.499111740046    0.000000000000
 H   -3.597889342290   -2.286866244519    0.000000000000
 C   -2.191842464858   -4.322758553820    0.000000000000
 H   -1.127310667072   -4.587302689271    0.000000000000
 H   -2.670649295324   -4.708001503803   -0.906311584935
 H   -2.670649295324   -4.708001503803    0.906311584935
