13

 H    0.948662452570    4.390741498996    0.000000000000
 H    2.492002452570    4.511441498996    0.906310000000
 H    2.492002452570    4.511441498996   -0.906310000000
 C    2.013202452570    4.126191498996    0.000000000000
 S    2.092502452570    2.302541498996    0.000000000000
 H    3.419252452570    2.090301498996    0.000000000000
NA    0.540562452570    0.594821498996    0.000000000000
 S   -2.351387001577   -2.587414877305    0.000000000000
 H   -3.678137375246   -2.375169381779    0.000000000000
 C   -2.272090497814   -4.411061691080    0.000000000000
 H   -1.207558700027   -4.675605826530    0.000000000000
 H   -2.750897328280   -4.796304641063   -0.906311584935
 H   -2.750897328280   -4.796304641063    0.906311584935
