13

 H    0.975793074561    4.420595427490    0.000000000000
 H    2.519133074561    4.541295427490    0.906310000000
 H    2.519133074561    4.541295427490   -0.906310000000
 C    2.040333074561    4.156045427490    0.000000000000
 S    2.119633074561    2.332395427490    0.000000000000
 H    3.446383074561    2.120155427490    0.000000000000
NA    0.567693074561    0.624675427490    0.000000000000
 S   -2.391511018055   -2.631566445935    0.000000000000
 H   -3.718261391723   -2.419320950409    0.000000000000
 C   -2.312214514291   -4.455213259710    0.000000000000
 H   -1.247682716505   -4.719757395160    0.000000000000
 H   -2.791021344757   -4.840456209693   -0.906311584935
 H   -2.791021344757   -4.840456209693    0.906311584935
