13

 H    1.165707428497    4.629572926944    0.000000000000
 H    2.709047428497    4.750272926944    0.906310000000
 H    2.709047428497    4.750272926944   -0.906310000000
 C    2.230247428497    4.365022926944    0.000000000000
 S    2.309547428497    2.541372926944    0.000000000000
 H    3.636297428497    2.329132926944    0.000000000000
NA    0.757607428497    0.833652926944    0.000000000000
 S   -2.672379133399   -2.940627426344    0.000000000000
 H   -3.999129507067   -2.728381930818    0.000000000000
 C   -2.593082629635   -4.764274240119    0.000000000000
 H   -1.528550831849   -5.028818375569    0.000000000000
 H   -3.071889460101   -5.149517190101   -0.906311584935
 H   -3.071889460101   -5.149517190101    0.906311584935
