13

 H    1.219968672479    4.689280783931    0.000000000000
 H    2.763308672479    4.809980783931    0.906310000000
 H    2.763308672479    4.809980783931   -0.906310000000
 C    2.284508672479    4.424730783931    0.000000000000
 S    2.363808672479    2.601080783931    0.000000000000
 H    3.690558672479    2.388840783931    0.000000000000
NA    0.811868672479    0.893360783931    0.000000000000
 S   -2.752627166355   -3.028930563603    0.000000000000
 H   -4.079377540023   -2.816685068077    0.000000000000
 C   -2.673330662591   -4.852577377378    0.000000000000
 H   -1.608798864804   -5.117121512829    0.000000000000
 H   -3.152137493057   -5.237820327361   -0.906311584935
 H   -3.152137493057   -5.237820327361    0.906311584935
