13

 H    1.247099294469    4.719134712424    0.000000000000
 H    2.790439294469    4.839834712424    0.906310000000
 H    2.790439294469    4.839834712424   -0.906310000000
 C    2.311639294469    4.454584712424    0.000000000000
 S    2.390939294469    2.630934712424    0.000000000000
 H    3.717689294469    2.418694712424    0.000000000000
NA    0.838999294469    0.923214712424    0.000000000000
 S   -2.792751182832   -3.073082132233    0.000000000000
 H   -4.119501556501   -2.860836636707    0.000000000000
 C   -2.713454679069   -4.896728946008    0.000000000000
 H   -1.648922881282   -5.161273081458    0.000000000000
 H   -3.192261509535   -5.281971895991   -0.906311584935
 H   -3.192261509535   -5.281971895991    0.906311584935
