13

 H    1.328491160442    4.808696497905    0.000000000000
 H    2.871831160442    4.929396497905    0.906310000000
 H    2.871831160442    4.929396497905   -0.906310000000
 C    2.393031160442    4.544146497905    0.000000000000
 S    2.472331160442    2.720496497905    0.000000000000
 H    3.799081160442    2.508256497905    0.000000000000
NA    0.920391160442    1.012776497905    0.000000000000
 S   -2.913123232266   -3.205536838123    0.000000000000
 H   -4.239873605934   -2.993291342597    0.000000000000
 C   -2.833826728502   -5.029183651897    0.000000000000
 H   -1.769294930715   -5.293727787348    0.000000000000
 H   -3.312633558968   -5.414426601880   -0.906311584935
 H   -3.312633558968   -5.414426601880    0.906311584935
