13

 H    1.545536136368    5.047527925852    0.000000000000
 H    3.088876136368    5.168227925852    0.906310000000
 H    3.088876136368    5.168227925852   -0.906310000000
 C    2.610076136368    4.782977925852    0.000000000000
 S    2.689376136368    2.959327925852    0.000000000000
 H    4.016126136368    2.747087925852    0.000000000000
NA    1.137436136368    1.251607925852    0.000000000000
 S   -3.234115364087   -3.558749387161    0.000000000000
 H   -4.560865737756   -3.346503891635    0.000000000000
 C   -3.154818860324   -5.382396200936    0.000000000000
 H   -2.090287062537   -5.646940336386    0.000000000000
 H   -3.633625690790   -5.767639150919   -0.906311584935
 H   -3.633625690790   -5.767639150919    0.906311584935
