13

 H    1.599797380350    5.107235782839    0.000000000000
 H    3.143137380350    5.227935782839    0.906310000000
 H    3.143137380350    5.227935782839   -0.906310000000
 C    2.664337380350    4.842685782839    0.000000000000
 S    2.743637380350    3.019035782839    0.000000000000
 H    4.070387380350    2.806795782839    0.000000000000
NA    1.191697380350    1.311315782839    0.000000000000
 S   -3.314363397043   -3.647052524421    0.000000000000
 H   -4.641113770711   -3.434807028895    0.000000000000
 C   -3.235066893279   -5.470699338196    0.000000000000
 H   -2.170535095493   -5.735243473646    0.000000000000
 H   -3.713873723745   -5.855942288178   -0.906311584935
 H   -3.713873723745   -5.855942288178    0.906311584935
