13

 H    1.626928002341    5.137089711333    0.000000000000
 H    3.170268002341    5.257789711333    0.906310000000
 H    3.170268002341    5.257789711333   -0.906310000000
 C    2.691468002341    4.872539711333    0.000000000000
 S    2.770768002341    3.048889711333    0.000000000000
 H    4.097518002341    2.836649711333    0.000000000000
NA    1.218828002341    1.341169711333    0.000000000000
 S   -3.354487413521   -3.691204093051    0.000000000000
 H   -4.681237787189   -3.478958597524    0.000000000000
 C   -3.275190909757   -5.514850906825    0.000000000000
 H   -2.210659111970   -5.779395042276    0.000000000000
 H   -3.753997740223   -5.900093856808   -0.906311584935
 H   -3.753997740223   -5.900093856808    0.906311584935
