13

 H    1.708319868313    5.226651496813    0.000000000000
 H    3.251659868313    5.347351496813    0.906310000000
 H    3.251659868313    5.347351496813   -0.906310000000
 C    2.772859868313    4.962101496813    0.000000000000
 S    2.852159868313    3.138451496813    0.000000000000
 H    4.178909868313    2.926211496813    0.000000000000
NA    1.300219868313    1.430731496813    0.000000000000
 S   -3.474859462954   -3.823658798940    0.000000000000
 H   -4.801609836622   -3.611413303414    0.000000000000
 C   -3.395562959190   -5.647305612715    0.000000000000
 H   -2.331031161404   -5.911849748165    0.000000000000
 H   -3.874369789656   -6.032548562698   -0.906311584935
 H   -3.874369789656   -6.032548562698    0.906311584935
