13

 H    1.843972978267    5.375921139281    0.000000000000
 H    3.387312978267    5.496621139281    0.906310000000
 H    3.387312978267    5.496621139281   -0.906310000000
 C    2.908512978267    5.111371139281    0.000000000000
 S    2.987812978267    3.287721139281    0.000000000000
 H    4.314562978267    3.075481139281    0.000000000000
NA    1.435872978267    1.580001139281    0.000000000000
 S   -3.675479545342   -4.044416642089    0.000000000000
 H   -5.002229919011   -3.832171146563    0.000000000000
 C   -3.596183041579   -5.868063455864    0.000000000000
 H   -2.531651243792   -6.132607591314    0.000000000000
 H   -4.074989872045   -6.253306405847   -0.906311584935
 H   -4.074989872045   -6.253306405847    0.906311584935
