13

 H    1.871103600258    5.405775067774    0.000000000000
 H    3.414443600258    5.526475067774    0.906310000000
 H    3.414443600258    5.526475067774   -0.906310000000
 C    2.935643600258    5.141225067774    0.000000000000
 S    3.014943600258    3.317575067774    0.000000000000
 H    4.341693600258    3.105335067774    0.000000000000
NA    1.463003600258    1.609855067774    0.000000000000
 S   -3.715603561820   -4.088568210719    0.000000000000
 H   -5.042353935488   -3.876322715193    0.000000000000
 C   -3.636307058057   -5.912215024494    0.000000000000
 H   -2.571775260270   -6.176759159944    0.000000000000
 H   -4.115113888523   -6.297457974477   -0.906311584935
 H   -4.115113888523   -6.297457974477    0.906311584935
