13

 H    1.898234222249    5.435628996268    0.000000000000
 H    3.441574222249    5.556328996268    0.906310000000
 H    3.441574222249    5.556328996268   -0.906310000000
 C    2.962774222249    5.171078996268    0.000000000000
 S    3.042074222249    3.347428996268    0.000000000000
 H    4.368824222249    3.135188996268    0.000000000000
NA    1.490134222249    1.639708996268    0.000000000000
 S   -3.755727578298   -4.132719779349    0.000000000000
 H   -5.082477951966   -3.920474283823    0.000000000000
 C   -3.676431074534   -5.956366593124    0.000000000000
 H   -2.611899276748   -6.220910728574    0.000000000000
 H   -4.155237905000   -6.341609543106   -0.906311584935
 H   -4.155237905000   -6.341609543106    0.906311584935
