13

 H    1.925364844240    5.465482924761    0.000000000000
 H    3.468704844240    5.586182924761    0.906310000000
 H    3.468704844240    5.586182924761   -0.906310000000
 C    2.989904844240    5.200932924761    0.000000000000
 S    3.069204844240    3.377282924761    0.000000000000
 H    4.395954844240    3.165042924761    0.000000000000
NA    1.517264844240    1.669562924761    0.000000000000
 S   -3.795851594776   -4.176871347979    0.000000000000
 H   -5.122601968444   -3.964625852452    0.000000000000
 C   -3.716555091012   -6.000518161753    0.000000000000
 H   -2.652023293225   -6.265062297204    0.000000000000
 H   -4.195361921478   -6.385761111736   -0.906311584935
 H   -4.195361921478   -6.385761111736    0.906311584935
