13

 H    2.033887332203    5.584898638735    0.000000000000
 H    3.577227332203    5.705598638735    0.906310000000
 H    3.577227332203    5.705598638735   -0.906310000000
 C    3.098427332203    5.320348638735    0.000000000000
 S    3.177727332203    3.496698638735    0.000000000000
 H    4.504477332203    3.284458638735    0.000000000000
NA    1.625787332203    1.788978638735    0.000000000000
 S   -3.956347660687   -4.353477622498    0.000000000000
 H   -5.283098034355   -4.141232126972    0.000000000000
 C   -3.877051156923   -6.177124436273    0.000000000000
 H   -2.812519359136   -6.441668571723    0.000000000000
 H   -4.355857987389   -6.562367386256   -0.906311584935
 H   -4.355857987389   -6.562367386256    0.906311584935
