13

 H    2.061017954194    5.614752567228    0.000000000000
 H    3.604357954194    5.735452567228    0.906310000000
 H    3.604357954194    5.735452567228   -0.906310000000
 C    3.125557954194    5.350202567228    0.000000000000
 S    3.204857954194    3.526552567228    0.000000000000
 H    4.531607954194    3.314312567228    0.000000000000
NA    1.652917954194    1.818832567228    0.000000000000
 S   -3.996471677164   -4.397629191128    0.000000000000
 H   -5.323222050833   -4.185383695602    0.000000000000
 C   -3.917175173401   -6.221276004902    0.000000000000
 H   -2.852643375614   -6.485820140353    0.000000000000
 H   -4.395982003867   -6.606518954885   -0.906311584935
 H   -4.395982003867   -6.606518954885    0.906311584935
