13

 H    2.250932308130    5.823730066683    0.000000000000
 H    3.794272308130    5.944430066683    0.906310000000
 H    3.794272308130    5.944430066683   -0.906310000000
 C    3.315472308130    5.559180066683    0.000000000000
 S    3.394772308130    3.735530066683    0.000000000000
 H    4.721522308130    3.523290066683    0.000000000000
NA    1.842832308130    2.027810066683    0.000000000000
 S   -4.277339792508   -4.706690171536    0.000000000000
 H   -5.604090166177   -4.494444676010    0.000000000000
 C   -4.198043288745   -6.530336985311    0.000000000000
 H   -3.133511490958   -6.794881120762    0.000000000000
 H   -4.676850119211   -6.915579935294   -0.906311584935
 H   -4.676850119211   -6.915579935294    0.906311584935
