13

 H    2.305193552111    5.883437923670    0.000000000000
 H    3.848533552111    6.004137923670    0.906310000000
 H    3.848533552111    6.004137923670   -0.906310000000
 C    3.369733552111    5.618887923670    0.000000000000
 S    3.449033552111    3.795237923670    0.000000000000
 H    4.775783552111    3.582997923670    0.000000000000
NA    1.897093552111    2.087517923670    0.000000000000
 S   -4.357587825464   -4.794993308796    0.000000000000
 H   -5.684338199132   -4.582747813270    0.000000000000
 C   -4.278291321700   -6.618640122571    0.000000000000
 H   -3.213759523914   -6.883184258021    0.000000000000
 H   -4.757098152166   -7.003883072554   -0.906311584935
 H   -4.757098152166   -7.003883072554    0.906311584935
