13

 H    2.440846662065    6.032707566137    0.000000000000
 H    3.984186662065    6.153407566137    0.906310000000
 H    3.984186662065    6.153407566137   -0.906310000000
 C    3.505386662065    5.768157566137    0.000000000000
 S    3.584686662065    3.944507566137    0.000000000000
 H    4.911436662065    3.732267566137    0.000000000000
NA    2.032746662065    2.236787566137    0.000000000000
 S   -4.558207907853   -5.015751151945    0.000000000000
 H   -5.884958281521   -4.803505656419    0.000000000000
 C   -4.478911404089   -6.839397965720    0.000000000000
 H   -3.414379606302   -7.103942101170    0.000000000000
 H   -4.957718234555   -7.224640915703   -0.906311584935
 H   -4.957718234555   -7.224640915703    0.906311584935
