13

 H    2.467977284056    6.062561494630    0.000000000000
 H    4.011317284056    6.183261494630    0.906310000000
 H    4.011317284056    6.183261494630   -0.906310000000
 C    3.532517284056    5.798011494630    0.000000000000
 S    3.611817284056    3.974361494630    0.000000000000
 H    4.938567284056    3.762121494630    0.000000000000
NA    2.059877284056    2.266641494630    0.000000000000
 S   -4.598331924330   -5.059902720575    0.000000000000
 H   -5.925082297999   -4.847657225049    0.000000000000
 C   -4.519035420567   -6.883549534350    0.000000000000
 H   -3.454503622780   -7.148093669800    0.000000000000
 H   -4.997842251033   -7.268792484333   -0.906311584935
 H   -4.997842251033   -7.268792484333    0.906311584935
