10

 C    0.866676125564   -2.306103684866    0.000000000000
 C   -0.232622874436   -1.257243684866    0.000000000000
 N   -1.512230874436   -1.761032684866    0.000000000000
 H   -2.286903874436   -1.110448684866    0.000000000000
 H   -1.698901874436   -2.753083684866    0.000000000000
 O   -0.011030874436   -0.044241684866    0.000000000000
 H    1.837341125564   -1.796958684866    0.000000000000
 H    0.787038125564   -2.947108684866    0.892247000000
 H    0.787038125564   -2.947108684866   -0.892247000000
RB    0.168675784031    0.939478558345    0.000000000000
