10

 C    0.845475249941   -2.422157985258    0.000000000000
 C   -0.253823750059   -1.373297985258    0.000000000000
 N   -1.533431750059   -1.877086985258    0.000000000000
 H   -2.308104750059   -1.226502985258    0.000000000000
 H   -1.720102750059   -2.869137985258    0.000000000000
 O   -0.032231750059   -0.160295985258    0.000000000000
 H    1.816140249941   -1.913012985258    0.000000000000
 H    0.765837249941   -3.063162985258    0.892247000000
 H    0.765837249941   -3.063162985258   -0.892247000000
RB    0.183416240101    1.020168306595    0.000000000000
