10

 C    0.834874812129   -2.480185135453    0.000000000000
 C   -0.264424187871   -1.431325135453    0.000000000000
 N   -1.544032187871   -1.935114135453    0.000000000000
 H   -2.318705187871   -1.284530135453    0.000000000000
 H   -1.730703187871   -2.927165135453    0.000000000000
 O   -0.042832187871   -0.218323135453    0.000000000000
 H    1.805539812129   -1.971040135453    0.000000000000
 H    0.755236812129   -3.121190135453    0.892247000000
 H    0.755236812129   -3.121190135453   -0.892247000000
RB    0.190786468136    1.060513180721    0.000000000000
