10

 C    0.824274374318   -2.538212285649    0.000000000000
 C   -0.275024625682   -1.489352285649    0.000000000000
 N   -1.554632625682   -1.993141285649    0.000000000000
 H   -2.329305625682   -1.342557285649    0.000000000000
 H   -1.741303625682   -2.985192285649    0.000000000000
 O   -0.053432625682   -0.276350285649    0.000000000000
 H    1.794939374318   -2.029067285649    0.000000000000
 H    0.744636374318   -3.179217285649    0.892247000000
 H    0.744636374318   -3.179217285649   -0.892247000000
RB    0.198156696171    1.100858054846    0.000000000000
