10

 C    0.813673936506   -2.596239435845    0.000000000000
 C   -0.285625063494   -1.547379435845    0.000000000000
 N   -1.565233063494   -2.051168435845    0.000000000000
 H   -2.339906063494   -1.400584435845    0.000000000000
 H   -1.751904063494   -3.043219435845    0.000000000000
 O   -0.064033063494   -0.334377435845    0.000000000000
 H    1.784338936506   -2.087094435845    0.000000000000
 H    0.734035936506   -3.237244435845    0.892247000000
 H    0.734035936506   -3.237244435845   -0.892247000000
RB    0.205526924207    1.141202928971    0.000000000000
