10

 C    0.792473060884   -2.712293736236    0.000000000000
 C   -0.306825939116   -1.663433736236    0.000000000000
 N   -1.586433939116   -2.167222736236    0.000000000000
 H   -2.361106939116   -1.516638736236    0.000000000000
 H   -1.773104939116   -3.159273736236    0.000000000000
 O   -0.085233939116   -0.450431736236    0.000000000000
 H    1.763138060884   -2.203148736236    0.000000000000
 H    0.712835060884   -3.353298736236    0.892247000000
 H    0.712835060884   -3.353298736236   -0.892247000000
RB    0.220267380277    1.221892677222    0.000000000000
