10

 C    0.707669558392   -3.176510937802    0.000000000000
 C   -0.391629441608   -2.127650937802    0.000000000000
 N   -1.671237441608   -2.631439937802    0.000000000000
 H   -2.445910441608   -1.980855937802    0.000000000000
 H   -1.857908441608   -3.623490937802    0.000000000000
 O   -0.170037441608   -0.914648937802    0.000000000000
 H    1.678334558392   -2.667365937802    0.000000000000
 H    0.628031558392   -3.817515937802    0.892247000000
 H    0.628031558392   -3.817515937802   -0.892247000000
RB    0.279229204559    1.544651670225    0.000000000000
