10

 C    0.686468682769   -3.292565238194    0.000000000000
 C   -0.412830317231   -2.243705238194    0.000000000000
 N   -1.692438317231   -2.747494238194    0.000000000000
 H   -2.467111317231   -2.096910238194    0.000000000000
 H   -1.879109317231   -3.739545238194    0.000000000000
 O   -0.191238317231   -1.030703238194    0.000000000000
 H    1.657133682769   -2.783420238194    0.000000000000
 H    0.606830682769   -3.933570238194    0.892247000000
 H    0.606830682769   -3.933570238194   -0.892247000000
RB    0.293969660629    1.625341418475    0.000000000000
