10

 C    0.633466493712   -3.582700989172    0.000000000000
 C   -0.465832506288   -2.533840989172    0.000000000000
 N   -1.745440506288   -3.037629989172    0.000000000000
 H   -2.520113506288   -2.387045989172    0.000000000000
 H   -1.932111506288   -4.029680989172    0.000000000000
 O   -0.244240506288   -1.320838989172    0.000000000000
 H    1.604131493712   -3.073555989172    0.000000000000
 H    0.553828493712   -4.223705989172    0.892247000000
 H    0.553828493712   -4.223705989172   -0.892247000000
RB    0.330820800806    1.827065789102    0.000000000000
