10

 C    0.622866055900   -3.640728139368    0.000000000000
 C   -0.476432944100   -2.591868139368    0.000000000000
 N   -1.756040944100   -3.095657139368    0.000000000000
 H   -2.530713944100   -2.445073139368    0.000000000000
 H   -1.942711944100   -4.087708139368    0.000000000000
 O   -0.254840944100   -1.378866139368    0.000000000000
 H    1.593531055900   -3.131583139368    0.000000000000
 H    0.543228055900   -4.281733139368    0.892247000000
 H    0.543228055900   -4.281733139368   -0.892247000000
RB    0.338191028841    1.867410663227    0.000000000000
