10

 C    0.612265618089   -3.698755289564    0.000000000000
 C   -0.487033381911   -2.649895289564    0.000000000000
 N   -1.766641381911   -3.153684289564    0.000000000000
 H   -2.541314381911   -2.503100289564    0.000000000000
 H   -1.953312381911   -4.145735289564    0.000000000000
 O   -0.265441381911   -1.436893289564    0.000000000000
 H    1.582930618089   -3.189610289564    0.000000000000
 H    0.532627618089   -4.339760289564    0.892247000000
 H    0.532627618089   -4.339760289564   -0.892247000000
RB    0.345561256876    1.907755537353    0.000000000000
