10

 C    0.569863866843   -3.930863890347    0.000000000000
 C   -0.529435133157   -2.882003890347    0.000000000000
 N   -1.809043133157   -3.385792890347    0.000000000000
 H   -2.583716133157   -2.735208890347    0.000000000000
 H   -1.995714133157   -4.377843890347    0.000000000000
 O   -0.307843133157   -1.669001890347    0.000000000000
 H    1.540528866843   -3.421718890347    0.000000000000
 H    0.490225866843   -4.571868890347    0.892247000000
 H    0.490225866843   -4.571868890347   -0.892247000000
RB    0.375042169017    2.069135033854    0.000000000000
