10

 C    0.559263429031   -3.988891040543    0.000000000000
 C   -0.540035570969   -2.940031040543    0.000000000000
 N   -1.819643570969   -3.443820040543    0.000000000000
 H   -2.594316570969   -2.793236040543    0.000000000000
 H   -2.006314570969   -4.435871040543    0.000000000000
 O   -0.318443570969   -1.727029040543    0.000000000000
 H    1.529928429031   -3.479746040543    0.000000000000
 H    0.479625429031   -4.629896040543    0.892247000000
 H    0.479625429031   -4.629896040543   -0.892247000000
RB    0.382412397052    2.109479907980    0.000000000000
