10

 C    0.538062553409   -4.104945340934    0.000000000000
 C   -0.561236446591   -3.056085340934    0.000000000000
 N   -1.840844446591   -3.559874340934    0.000000000000
 H   -2.615517446591   -2.909290340934    0.000000000000
 H   -2.027515446591   -4.551925340934    0.000000000000
 O   -0.339644446591   -1.843083340934    0.000000000000
 H    1.508727553409   -3.595800340934    0.000000000000
 H    0.458424553409   -4.745950340934    0.892247000000
 H    0.458424553409   -4.745950340934   -0.892247000000
RB    0.397152853123    2.190169656230    0.000000000000
