10

 C    0.442658613105   -4.627189692696    0.000000000000
 C   -0.656640386895   -3.578329692696    0.000000000000
 N   -1.936248386895   -4.082118692696    0.000000000000
 H   -2.710921386895   -3.431534692696    0.000000000000
 H   -2.122919386895   -5.074169692696    0.000000000000
 O   -0.435048386895   -2.365327692696    0.000000000000
 H    1.413323613105   -4.118044692696    0.000000000000
 H    0.363020613105   -5.268194692696    0.892247000000
 H    0.363020613105   -5.268194692696   -0.892247000000
RB    0.463484905440    2.553273523358    0.000000000000
