10

 C    0.421457737483   -4.743243993087    0.000000000000
 C   -0.677841262517   -3.694383993087    0.000000000000
 N   -1.957449262517   -4.198172993087    0.000000000000
 H   -2.732122262517   -3.547588993087    0.000000000000
 H   -2.144120262517   -5.190223993087    0.000000000000
 O   -0.456249262517   -2.481381993087    0.000000000000
 H    1.392122737483   -4.234098993087    0.000000000000
 H    0.341819737483   -5.384248993087    0.892247000000
 H    0.341819737483   -5.384248993087   -0.892247000000
RB    0.478225361510    2.633963271609    0.000000000000
