10

 C    0.410857299671   -4.801271143283    0.000000000000
 C   -0.688441700329   -3.752411143283    0.000000000000
 N   -1.968049700329   -4.256200143283    0.000000000000
 H   -2.742722700329   -3.605616143283    0.000000000000
 H   -2.154720700329   -5.248251143283    0.000000000000
 O   -0.466849700329   -2.539409143283    0.000000000000
 H    1.381522299671   -4.292126143283    0.000000000000
 H    0.331219299671   -5.442276143283    0.892247000000
 H    0.331219299671   -5.442276143283   -0.892247000000
RB    0.485595589545    2.674308145734    0.000000000000
