10

 C    0.400256861860   -4.859298293478    0.000000000000
 C   -0.699042138140   -3.810438293479    0.000000000000
 N   -1.978650138140   -4.314227293478    0.000000000000
 H   -2.753323138140   -3.663643293479    0.000000000000
 H   -2.165321138140   -5.306278293478    0.000000000000
 O   -0.477450138140   -2.597436293478    0.000000000000
 H    1.370921861860   -4.350153293478    0.000000000000
 H    0.320618861860   -5.500303293478    0.892247000000
 H    0.320618861860   -5.500303293478   -0.892247000000
RB    0.492965817580    2.714653019860    0.000000000000
