10

 C    0.304852921557   -5.381542645240    0.000000000000
 C   -0.794446078443   -4.332682645240    0.000000000000
 N   -2.074054078443   -4.836471645240    0.000000000000
 H   -2.848727078443   -4.185887645240    0.000000000000
 H   -2.260725078443   -5.828522645240    0.000000000000
 O   -0.572854078443   -3.119680645240    0.000000000000
 H    1.275517921557   -4.872397645240    0.000000000000
 H    0.225214921557   -6.022547645240    0.892247000000
 H    0.225214921557   -6.022547645240   -0.892247000000
RB    0.559297869897    3.077756886988    0.000000000000
