10

 C    0.262451170311   -5.613651246023    0.000000000000
 C   -0.836847829689   -4.564791246023    0.000000000000
 N   -2.116455829689   -5.068580246023    0.000000000000
 H   -2.891128829689   -4.417996246023    0.000000000000
 H   -2.303126829689   -6.060631246023    0.000000000000
 O   -0.615255829689   -3.351789246023    0.000000000000
 H    1.233116170311   -5.104506246023    0.000000000000
 H    0.182813170311   -6.254656246023    0.892247000000
 H    0.182813170311   -6.254656246023   -0.892247000000
RB    0.588778782038    3.239136383489    0.000000000000
