10

 C    0.251850732499   -5.671678396219    0.000000000000
 C   -0.847448267501   -4.622818396219    0.000000000000
 N   -2.127056267501   -5.126607396219    0.000000000000
 H   -2.901729267501   -4.476023396219    0.000000000000
 H   -2.313727267501   -6.118658396219    0.000000000000
 O   -0.625856267501   -3.409816396219    0.000000000000
 H    1.222515732499   -5.162533396219    0.000000000000
 H    0.172212732499   -6.312683396219    0.892247000000
 H    0.172212732499   -6.312683396219   -0.892247000000
RB    0.596149010074    3.279481257615    0.000000000000
