10

 C    0.220049419065   -5.845759846806    0.000000000000
 C   -0.879249580935   -4.796899846806    0.000000000000
 N   -2.158857580935   -5.300688846806    0.000000000000
 H   -2.933530580935   -4.650104846806    0.000000000000
 H   -2.345528580935   -6.292739846806    0.000000000000
 O   -0.657657580935   -3.583897846806    0.000000000000
 H    1.190714419065   -5.336614846806    0.000000000000
 H    0.140411419065   -6.486764846806    0.892247000000
 H    0.140411419065   -6.486764846806   -0.892247000000
RB    0.618259694179    3.400515879991    0.000000000000
