10

 C    0.198848543442   -5.961814147197    0.000000000000
 C   -0.900450456558   -4.912954147197    0.000000000000
 N   -2.180058456558   -5.416743147197    0.000000000000
 H   -2.954731456558   -4.766159147197    0.000000000000
 H   -2.366729456558   -6.408794147197    0.000000000000
 O   -0.678858456558   -3.699952147197    0.000000000000
 H    1.169513543442   -5.452669147197    0.000000000000
 H    0.119210543442   -6.602819147197    0.892247000000
 H    0.119210543442   -6.602819147197   -0.892247000000
RB    0.633000150250    3.481205628241    0.000000000000
