10

 C    0.124645478762   -6.368004198568    0.000000000000
 C   -0.974653521238   -5.319144198568    0.000000000000
 N   -2.254261521238   -5.822933198568    0.000000000000
 H   -3.028934521238   -5.172349198568    0.000000000000
 H   -2.440932521238   -6.814984198568    0.000000000000
 O   -0.753061521238   -4.106142198568    0.000000000000
 H    1.095310478762   -5.858859198568    0.000000000000
 H    0.045007478762   -7.009009198568    0.892247000000
 H    0.045007478762   -7.009009198568   -0.892247000000
RB    0.684591746496    3.763619747119    0.000000000000
