10

 C    0.082243727516   -6.600112799350    0.000000000000
 C   -1.017055272484   -5.551252799350    0.000000000000
 N   -2.296663272484   -6.055041799350    0.000000000000
 H   -3.071336272484   -5.404457799350    0.000000000000
 H   -2.483334272484   -7.047092799350    0.000000000000
 O   -0.795463272484   -4.338250799350    0.000000000000
 H    1.052908727516   -6.090967799350    0.000000000000
 H    0.002605727516   -7.241117799350    0.892247000000
 H    0.002605727516   -7.241117799350   -0.892247000000
RB    0.714072658637    3.924999243620    0.000000000000
