10

 C    0.061042851893   -6.716167099742    0.000000000000
 C   -1.038256148107   -5.667307099742    0.000000000000
 N   -2.317864148107   -6.171096099742    0.000000000000
 H   -3.092537148107   -5.520512099742    0.000000000000
 H   -2.504535148107   -7.163147099742    0.000000000000
 O   -0.816664148107   -4.454305099742    0.000000000000
 H    1.031707851893   -6.207022099742    0.000000000000
 H   -0.018595148107   -7.357172099742    0.892247000000
 H   -0.018595148107   -7.357172099742   -0.892247000000
RB    0.728813114708    4.005688991871    0.000000000000
