10

 C    0.039841976270   -6.832221400133    0.000000000000
 C   -1.059457023730   -5.783361400133    0.000000000000
 N   -2.339065023730   -6.287150400133    0.000000000000
 H   -3.113738023730   -5.636566400133    0.000000000000
 H   -2.525736023730   -7.279201400133    0.000000000000
 O   -0.837865023730   -4.570359400133    0.000000000000
 H    1.010506976270   -6.323076400133    0.000000000000
 H   -0.039796023730   -7.473226400133    0.892247000000
 H   -0.039796023730   -7.473226400133   -0.892247000000
RB    0.743553570778    4.086378740122    0.000000000000
