10

 C    0.018641100647   -6.948275700525    0.000000000000
 C   -1.080657899353   -5.899415700525    0.000000000000
 N   -2.360265899353   -6.403204700525    0.000000000000
 H   -3.134938899353   -5.752620700525    0.000000000000
 H   -2.546936899353   -7.395255700525    0.000000000000
 O   -0.859065899353   -4.686413700525    0.000000000000
 H    0.989306100647   -6.439130700525    0.000000000000
 H   -0.060996899353   -7.589280700525    0.892247000000
 H   -0.060996899353   -7.589280700525   -0.892247000000
RB    0.758294026849    4.167068488372    0.000000000000
