10

 C   -0.002559774976   -7.064330000916    0.000000000000
 C   -1.101858774976   -6.015470000916    0.000000000000
 N   -2.381466774976   -6.519259000916    0.000000000000
 H   -3.156139774976   -5.868675000916    0.000000000000
 H   -2.568137774976   -7.511310000916    0.000000000000
 O   -0.880266774976   -4.802468000916    0.000000000000
 H    0.968105225024   -6.555185000916    0.000000000000
 H   -0.082197774976   -7.705335000916    0.892247000000
 H   -0.082197774976   -7.705335000916   -0.892247000000
RB    0.773034482919    4.247758236623    0.000000000000
