10

 C   -0.013160212787   -7.122357151112    0.000000000000
 C   -1.112459212787   -6.073497151112    0.000000000000
 N   -2.392067212787   -6.577286151112    0.000000000000
 H   -3.166740212787   -5.926702151112    0.000000000000
 H   -2.578738212787   -7.569337151112    0.000000000000
 O   -0.890867212787   -4.860495151112    0.000000000000
 H    0.957504787213   -6.613212151112    0.000000000000
 H   -0.092798212787   -7.763362151112    0.892247000000
 H   -0.092798212787   -7.763362151112   -0.892247000000
RB    0.780404710954    4.288103110748    0.000000000000
