10

 C   -0.034361088410   -7.238411451504    0.000000000000
 C   -1.133660088410   -6.189551451504    0.000000000000
 N   -2.413268088410   -6.693340451504    0.000000000000
 H   -3.187941088410   -6.042756451504    0.000000000000
 H   -2.599939088410   -7.685391451504    0.000000000000
 O   -0.912068088410   -4.976549451504    0.000000000000
 H    0.936303911590   -6.729266451504    0.000000000000
 H   -0.113999088410   -7.879416451504    0.892247000000
 H   -0.113999088410   -7.879416451504   -0.892247000000
RB    0.795145167025    4.368792858999    0.000000000000
