22

 H    2.962260587275   -0.957704555600   -0.717682519659
 H    2.121770587275   -1.657274555600   -2.136162519659
 H    1.744520587275   -2.279434555600   -0.477192519659
 C    2.023170587275   -1.400594555600   -1.070852519659
 S    0.705360587275   -0.124854555600   -0.986072519659
 S    0.510810587275    0.099835444400    1.101277480341
 C    1.838810587275    1.322055444400    1.438887480341
 H    2.808250587275    0.839555444400    1.266087480341
 H    1.746210587275    1.578855444400    2.505117480341
 H    1.712460587275    2.209235444400    0.806777480341
LI   -1.595629412725    1.263695444400    1.363407480341
LI   -1.362849412725   -1.202824555600   -1.643652519659
 S   -0.484523881366    0.120309958684    1.006990207605
 S   -0.289974204373   -0.104379668267   -1.080356326808
 C   -1.802337231919    1.396051541491    1.091772525341
 H   -2.741417484257    0.953162021456    0.738603949855
 H   -1.900939827717    1.652732734662    2.157078275619
 H   -1.523689843914    2.274886217633    0.498116776890
 C   -1.617970252015   -1.326597227798   -1.417971657504
 H   -2.587401589851   -0.844094057392   -1.245173113903
 H   -1.525366072296   -1.583395359420   -2.484200324299
 H   -1.491617309467   -2.213775352380   -0.785856795496
