22

 H    3.054880391108   -0.959609790027   -0.708908716500
 H    2.214390391108   -1.659179790027   -2.127388716500
 H    1.837140391108   -2.281339790027   -0.468418716500
 C    2.115790391108   -1.402499790027   -1.062078716500
 S    0.797980391108   -0.126759790027   -0.977298716500
 S    0.603430391108    0.097930209973    1.110051283500
 C    1.931430391108    1.320150209973    1.447661283500
 H    2.900870391108    0.837650209973    1.274861283500
 H    1.838830391108    1.576950209973    2.513891283500
 H    1.805080391108    2.207330209973    0.815551283500
LI   -1.503009608892    1.261790209973    1.372181283500
LI   -1.270229608892   -1.204729790027   -1.634878716500
 S   -0.590970971261    0.122499627114    0.996906556216
 S   -0.396421294269   -0.102189999838   -1.090439978196
 C   -1.908784321815    1.398241209920    1.081688873952
 H   -2.847864574153    0.955351689885    0.728520298466
 H   -2.007386917613    1.654922403091    2.146994624230
 H   -1.630136933809    2.277075886062    0.488033125501
 C   -1.724417341911   -1.324407559369   -1.428055308893
 H   -2.693848679746   -0.841904388963   -1.255256765292
 H   -1.631813162192   -1.581205690991   -2.494283975688
 H   -1.598064399363   -2.211585683951   -0.795940446885
