22

 H    3.101190293024   -0.960562407241   -0.704521814921
 H    2.260700293024   -1.660132407241   -2.123001814921
 H    1.883450293024   -2.282292407241   -0.464031814921
 C    2.162100293024   -1.403452407241   -1.057691814921
 S    0.844290293024   -0.127712407241   -0.972911814921
 S    0.649740293024    0.096977592759    1.114438185079
 C    1.977740293024    1.319197592759    1.452048185079
 H    2.947180293024    0.836697592759    1.279248185079
 H    1.885140293024    1.575997592759    2.518278185079
 H    1.851390293024    2.206377592759    0.819938185079
LI   -1.456699706976    1.260837592759    1.376568185079
LI   -1.223919706976   -1.205682407241   -1.630491814921
 S   -0.644194516209    0.123594461328    0.991864730522
 S   -0.449644839217   -0.101095165623   -1.095481803891
 C   -1.962007866763    1.399336044135    1.076647048258
 H   -2.901088119101    0.956446524100    0.723478472772
 H   -2.060610462561    1.656017237306    2.141952798536
 H   -1.683360478757    2.278170720277    0.482991299807
 C   -1.777640886859   -1.323312725154   -1.433097134588
 H   -2.747072224694   -0.840809554748   -1.260298590986
 H   -1.685036707140   -1.580110856776   -2.499325801382
 H   -1.651287944310   -2.210490849737   -0.800982272579
