22

 H    3.193810096856   -0.962467641668   -0.695748011762
 H    2.353320096856   -1.662037641668   -2.114228011762
 H    1.976070096856   -2.284197641668   -0.455258011762
 C    2.254720096856   -1.405357641668   -1.048918011762
 S    0.936910096856   -0.129617641668   -0.964138011762
 S    0.742360096856    0.095072358332    1.123211988238
 C    2.070360096856    1.317292358332    1.460821988238
 H    3.039800096856    0.834792358332    1.288021988238
 H    1.977760096856    1.574092358332    2.527051988238
 H    1.944010096856    2.204472358332    0.828711988238
LI   -1.364079903144    1.258932358332    1.385341988238
LI   -1.131299903144   -1.207587641668   -1.621718011762
 S   -0.750641606105    0.125784129757    0.981781079133
 S   -0.556091929113   -0.098905497194   -1.105565455279
 C   -2.068454956658    1.401525712564    1.066563396869
 H   -3.007535208997    0.958636192529    0.713394821383
 H   -2.167057552456    1.658206905735    2.131869147147
 H   -1.789807568653    2.280360388706    0.472907648418
 C   -1.884087976755   -1.321123056725   -1.443180785976
 H   -2.853519314590   -0.838619886319   -1.270382242375
 H   -1.791483797036   -1.577921188347   -2.509409452771
 H   -1.757735034206   -2.208301181307   -0.811065923968
