22

 H    3.332739802605   -0.965325493310   -0.682587307025
 H    2.492249802605   -1.664895493310   -2.101067307025
 H    2.114999802605   -2.287055493310   -0.442097307025
 C    2.393649802605   -1.408215493310   -1.035757307025
 S    1.075839802605   -0.132475493310   -0.950977307025
 S    0.881289802605    0.092214506690    1.136372692975
 C    2.209289802605    1.314434506690    1.473982692975
 H    3.178729802605    0.831934506690    1.301182692975
 H    2.116689802605    1.571234506690    2.540212692975
 H    2.082939802605    2.201614506690    0.841872692975
LI   -1.225150197395    1.256074506690    1.398502692975
LI   -0.992370197395   -1.210445493310   -1.608557307025
 S   -0.910312240948    0.129068632401    0.966655602050
 S   -0.715762563956   -0.095620994550   -1.120690932363
 C   -2.228125591502    1.404810215208    1.051437919786
 H   -3.167205843840    0.961920695173    0.698269344300
 H   -2.326728187300    1.661491408379    2.116743670064
 H   -1.949478203496    2.283644891350    0.457782171335
 C   -2.043758611598   -1.317838554081   -1.458306263059
 H   -3.013189949434   -0.835335383675   -1.285507719458
 H   -1.951154431879   -1.574636685703   -2.524534929854
 H   -1.917405669050   -2.205016678663   -0.826191401051
