22

 H    7.130151759738   -1.043440104837   -0.322861377525
 H    6.289661759738   -1.743010104837   -1.741341377525
 H    5.912411759738   -2.365170104837   -0.082371377525
 C    6.191061759738   -1.486330104837   -0.676031377525
 S    4.873251759738   -0.210590104837   -0.591251377525
 S    4.678701759738    0.014099895163    1.496098622475
 C    6.006701759738    1.236319895163    1.833708622475
 H    6.976141759738    0.753819895163    1.660908622475
 H    5.914101759738    1.493119895163    2.899938622475
 H    5.880351759738    2.123499895163    1.201598622475
LI    2.572261759738    1.177959895163    1.758228622475
LI    2.805041759738   -1.288560104837   -1.248831377525
 S   -5.274642926672    0.218845038001    0.553225895110
 S   -5.080093249679   -0.005844588950   -1.534120639302
 C   -6.592456277225    1.494586620808    0.638008212847
 H   -7.531536529563    1.051697100773    0.284839637360
 H   -6.691058873023    1.751267813979    1.703313963124
 H   -6.313808889220    2.373421296950    0.044352464395
 C   -6.408089297321   -1.228062148481   -1.871735969999
 H   -7.377520635157   -0.745558978075   -1.698937426398
 H   -6.315485117602   -1.484860280103   -2.937964636793
 H   -6.281736354773   -2.115240273063   -1.239621107991
