22

 H    3.471669508354   -0.968183344951   -0.669426602287
 H    2.631179508354   -1.667753344951   -2.087906602287
 H    2.253929508354   -2.289913344951   -0.428936602287
 C    2.532579508354   -1.411073344951   -1.022596602287
 S    1.214769508354   -0.135333344951   -0.937816602287
 S    1.020219508354    0.089356655049    1.149533397713
 C    2.348219508354    1.311576655049    1.487143397713
 H    3.317659508354    0.829076655049    1.314343397713
 H    2.255619508354    1.568376655049    2.553373397713
 H    2.221869508354    2.198756655049    0.855033397713
LI   -1.086220491646    1.253216655049    1.411663397713
LI   -0.853440491646   -1.213303344951   -1.595396602287
 S   -1.069982875792    0.132353135045    0.951530124966
 S   -0.875433198800   -0.092336491906   -1.135816409446
 C   -2.387796226345    1.408094717852    1.036312442703
 H   -3.326876478684    0.965205197817    0.683143867217
 H   -2.486398822143    1.664775911023    2.101618192981
 H   -2.109148838340    2.286929393994    0.442656694252
 C   -2.203429246442   -1.314554051437   -1.473431740143
 H   -3.172860584277   -0.832050881031   -1.300633196542
 H   -2.110825066723   -1.571352183059   -2.539660406937
 H   -2.077076303893   -2.201732176019   -0.841316878134
