22

 H    3.564289312186   -0.970088579378   -0.660652799128
 H    2.723799312186   -1.669658579378   -2.079132799128
 H    2.346549312186   -2.291818579378   -0.420162799128
 C    2.625199312186   -1.412978579378   -1.013822799128
 S    1.307389312186   -0.137238579378   -0.929042799128
 S    1.112839312186    0.087451420622    1.158307200872
 C    2.440839312186    1.309671420622    1.495917200872
 H    3.410279312186    0.827171420622    1.323117200872
 H    2.348239312186    1.566471420622    2.562147200872
 H    2.314489312186    2.196851420622    0.863807200872
LI   -0.993600687814    1.251311420622    1.420437200872
LI   -0.760820687814   -1.215208579378   -1.586622799128
 S   -1.176429965688    0.134542803475    0.941446473578
 S   -0.981880288695   -0.090146823477   -1.145900060835
 C   -2.494243316241    1.410284386281    1.026228791314
 H   -3.433323568579    0.967394866246    0.673060215828
 H   -2.592845912039    1.666965579452    2.091534541592
 H   -2.215595928236    2.289119062423    0.432573042863
 C   -2.309876336337   -1.312364383008   -1.483515391531
 H   -3.279307674173   -0.829861212602   -1.310716847930
 H   -2.217272156618   -1.569162514630   -2.549744058326
 H   -2.183523393789   -2.199542507590   -0.851400529523
