22

 H    3.703219017935   -0.972946431020   -0.647492094391
 H    2.862729017935   -1.672516431020   -2.065972094391
 H    2.485479017935   -2.294676431020   -0.407002094391
 C    2.764129017935   -1.415836431020   -1.000662094391
 S    1.446319017935   -0.140096431020   -0.915882094391
 S    1.251769017935    0.084593568980    1.171467905609
 C    2.579769017935    1.306813568980    1.509077905609
 H    3.549209017935    0.824313568980    1.336277905609
 H    2.487169017935    1.563613568980    2.575307905609
 H    2.453419017935    2.193993568980    0.876967905609
LI   -0.854670982065    1.248453568980    1.433597905609
LI   -0.621890982065   -1.218066431020   -1.573462094391
 S   -1.336100600531    0.137827306118    0.926320996494
 S   -1.141550923539   -0.086862320833   -1.161025537918
 C   -2.653913951085    1.413568888925    1.011103314231
 H   -3.592994203423    0.970679368890    0.657934738745
 H   -2.752516546883    1.670250082096    2.076409064509
 H   -2.375266563079    2.292403565067    0.417447565780
 C   -2.469546971181   -1.309079880364   -1.498640868615
 H   -3.438978309016   -0.826576709958   -1.325842325013
 H   -2.376942791462   -1.565878011986   -2.564869535409
 H   -2.343194028632   -2.196258004946   -0.866526006606
