22

 H    3.749528919851   -0.973899048233   -0.643105192811
 H    2.909038919851   -1.673469048233   -2.061585192811
 H    2.531788919851   -2.295629048233   -0.402615192811
 C    2.810438919851   -1.416789048233   -0.996275192811
 S    1.492628919851   -0.141049048233   -0.911495192811
 S    1.298078919851    0.083640951767    1.175854807189
 C    2.626078919851    1.305860951767    1.513464807189
 H    3.595518919851    0.823360951767    1.340664807189
 H    2.533478919851    1.562660951767    2.579694807189
 H    2.499728919851    2.193040951767    0.881354807189
LI   -0.808361080149    1.247500951767    1.437984807189
LI   -0.575581080149   -1.219019048233   -1.569075192811
 S   -1.389324145479    0.138922140333    0.921279170800
 S   -1.194774468487   -0.085767486618   -1.166067363612
 C   -2.707137496032    1.414663723140    1.006061488537
 H   -3.646217748371    0.971774203104    0.652892913051
 H   -2.805740091831    1.671344916311    2.071367238814
 H   -2.428490108027    2.293498399281    0.412405740085
 C   -2.522770516129   -1.307985046149   -1.503682694309
 H   -3.492201853964   -0.825481875743   -1.330884150708
 H   -2.430166336410   -1.564783177771   -2.569911361103
 H   -2.396417573580   -2.195163170732   -0.871567832300
