22

 H    3.795838821768   -0.974851665447   -0.638718291232
 H    2.955348821768   -1.674421665447   -2.057198291232
 H    2.578098821768   -2.296581665447   -0.398228291232
 C    2.856748821768   -1.417741665447   -0.991888291232
 S    1.538938821768   -0.142001665447   -0.907108291232
 S    1.344388821768    0.082688334553    1.180241708768
 C    2.672388821768    1.304908334553    1.517851708768
 H    3.641828821768    0.822408334553    1.345051708768
 H    2.579788821768    1.561708334553    2.584081708768
 H    2.546038821768    2.192088334553    0.885741708768
LI   -0.762051178232    1.246548334553    1.442371708768
LI   -0.529271178232   -1.219971665447   -1.564688291232
 S   -1.442547690427    0.140016974548    0.916237345106
 S   -1.247998013435   -0.084672652404   -1.171109189306
 C   -2.760361040980    1.415758557355    1.001019662842
 H   -3.699441293319    0.972869037319    0.647851087356
 H   -2.858963636778    1.672439750525    2.066325413120
 H   -2.481713652975    2.294593233496    0.407363914391
 C   -2.575994061077   -1.306890211935   -1.508724520003
 H   -3.545425398912   -0.824387041529   -1.335925976402
 H   -2.483389881358   -1.563688343556   -2.574953186798
 H   -2.449641118528   -2.194068336517   -0.876609657995
