22

 H    4.027388331349   -0.979614751516   -0.616783783336
 H    3.186898331349   -1.679184751516   -2.035263783336
 H    2.809648331349   -2.301344751516   -0.376293783336
 C    3.088298331349   -1.422504751516   -0.969953783336
 S    1.770488331349   -0.146764751516   -0.885173783336
 S    1.575938331349    0.077925248484    1.202176216664
 C    2.903938331349    1.300145248484    1.539786216664
 H    3.873378331349    0.817645248484    1.366986216664
 H    2.811338331349    1.556945248484    2.606016216664
 H    2.777588331349    2.187325248484    0.907676216664
LI   -0.530501668651    1.241785248484    1.464306216664
LI   -0.297721668651   -1.224734751516   -1.542753783336
 S   -1.708665415166    0.145491145621    0.891028216634
 S   -1.514115738174   -0.079198481331   -1.196318317778
 C   -3.026478765719    1.421232728428    0.975810534370
 H   -3.965559018058    0.978343208392    0.622641958884
 H   -3.125081361518    1.677913921598    2.041116284648
 H   -2.747831377714    2.300067404569    0.382154785919
 C   -2.842111785816   -1.301416040862   -1.533933648475
 H   -3.811543123651   -0.818912870455   -1.361135104874
 H   -2.749507606097   -1.558214172483   -2.600162315270
 H   -2.715758843267   -2.188594165444   -0.901818786467
