22

 H    4.120008135181   -0.981519985943   -0.608009980177
 H    3.279518135181   -1.681089985943   -2.026489980177
 H    2.902268135181   -2.303249985943   -0.367519980177
 C    3.180918135181   -1.424409985943   -0.961179980177
 S    1.863108135181   -0.148669985943   -0.876399980177
 S    1.668558135181    0.076020014057    1.210950019823
 C    2.996558135181    1.298240014057    1.548560019823
 H    3.965998135181    0.815740014057    1.375760019823
 H    2.903958135181    1.555040014057    2.614790019823
 H    2.870208135181    2.185420014057    0.916450019823
LI   -0.437881864819    1.239880014057    1.473080019823
LI   -0.205101864819   -1.226639985943   -1.533979980177
 S   -1.815112505062    0.147680814050    0.880944565245
 S   -1.620562828070   -0.077008812901   -1.206401969167
 C   -3.132925855615    1.423422396857    0.965726882982
 H   -4.072006107953    0.980532876822    0.612558307496
 H   -3.231528451413    1.680103590028    2.031032633259
 H   -2.854278467610    2.302257072999    0.372071134530
 C   -2.948558875711   -1.299226372432   -1.544017299864
 H   -3.917990213547   -0.816723202026   -1.371218756263
 H   -2.855954695993   -1.556024504054   -2.610245966658
 H   -2.822205933163   -2.186404497015   -0.911902437855
