22

 H    4.212627939014   -0.983425220371   -0.599236177019
 H    3.372137939014   -1.682995220371   -2.017716177019
 H    2.994887939014   -2.305155220371   -0.358746177019
 C    3.273537939014   -1.426315220371   -0.952406177019
 S    1.955727939014   -0.150575220371   -0.867626177019
 S    1.761177939014    0.074114779629    1.219723822981
 C    3.089177939014    1.296334779629    1.557333822981
 H    4.058617939014    0.813834779629    1.384533822981
 H    2.996577939014    1.553134779629    2.623563822981
 H    2.962827939014    2.183514779629    0.925223822981
LI   -0.345262060986    1.237974779629    1.481853822981
LI   -0.112482060986   -1.228545220371   -1.525206177019
 S   -1.921559594958    0.149870482479    0.870860913856
 S   -1.727009917965   -0.074819144472   -1.216485620556
 C   -3.239372945511    1.425612065286    0.955643231593
 H   -4.178453197849    0.982722545251    0.602474656107
 H   -3.337975541309    1.682293258457    2.020948981870
 H   -2.960725557506    2.304446741428    0.361987483142
 C   -3.055005965607   -1.297036704003   -1.554100951253
 H   -4.024437303443   -0.814533533597   -1.381302407652
 H   -2.962401785888   -1.553834835625   -2.620329618047
 H   -2.928653023059   -2.184214828585   -0.921986089244
