22

 H    4.258937840930   -0.984377837585   -0.594849275439
 H    3.418447840930   -1.683947837585   -2.013329275439
 H    3.041197840930   -2.306107837585   -0.354359275439
 C    3.319847840930   -1.427267837585   -0.948019275439
 S    2.002037840930   -0.151527837585   -0.863239275439
 S    1.807487840930    0.073162162415    1.224110724561
 C    3.135487840930    1.295382162415    1.561720724561
 H    4.104927840930    0.812882162415    1.388920724561
 H    3.042887840930    1.552182162415    2.627950724561
 H    3.009137840930    2.182562162415    0.929610724561
LI   -0.298952159070    1.237022162415    1.486240724561
LI   -0.066172159070   -1.229497837585   -1.520819275439
 S   -1.974783139905    0.150965316694    0.865819088162
 S   -1.780233462913   -0.073724310257   -1.221527446250
 C   -3.292596490459    1.426706899501    0.950601405898
 H   -4.231676742797    0.983817379465    0.597432830412
 H   -3.391199086257    1.683388092672    2.015907156176
 H   -3.013949102453    2.305541575642    0.356945657447
 C   -3.108229510555   -1.295941869788   -1.559142776947
 H   -4.077660848390   -0.813438699382   -1.386344233346
 H   -3.015625330836   -1.552740001410   -2.625371443742
 H   -2.981876568007   -2.183119994371   -0.927027914939
