22

 H    4.444177448595   -0.988188306440   -0.577301669122
 H    3.603687448595   -1.687758306440   -1.995781669122
 H    3.226437448595   -2.309918306440   -0.336811669122
 C    3.505087448595   -1.431078306440   -0.930471669122
 S    2.187277448595   -0.155338306440   -0.845691669122
 S    1.992727448595    0.069351693560    1.241658330878
 C    3.320727448595    1.291571693560    1.579268330878
 H    4.290167448595    0.809071693560    1.406468330878
 H    3.228127448595    1.548371693560    2.645498330878
 H    3.194377448595    2.178751693560    0.947158330878
LI   -0.113712551405    1.233211693560    1.503788330878
LI    0.119067448595   -1.233308306440   -1.503271669122
 S   -2.187677319697    0.155344653553    0.845651785384
 S   -1.993127642704   -0.069344973399   -1.241694749028
 C   -3.505490670250    1.431086236360    0.930434103121
 H   -4.444570922588    0.988196716324    0.577265527635
 H   -3.604093266048    1.687767429530    1.995739853398
 H   -3.226843282245    2.309920912501    0.336778354670
 C   -3.321123690346   -1.291562532930   -1.579310079725
 H   -4.290555028182   -0.809059362524   -1.406511536124
 H   -3.228519510627   -1.548360664552   -2.645538746519
 H   -3.194770747798   -2.178740657512   -0.947195217716
