22

 H    4.536797252428   -0.990093540867   -0.568527865964
 H    3.696307252428   -1.689663540867   -1.987007865964
 H    3.319057252428   -2.311823540867   -0.328037865964
 C    3.597707252428   -1.432983540867   -0.921697865964
 S    2.279897252428   -0.157243540867   -0.836917865964
 S    2.085347252428    0.067446459133    1.250432134036
 C    3.413347252428    1.289666459133    1.588042134036
 H    4.382787252428    0.807166459133    1.415242134036
 H    3.320747252428    1.546466459133    2.654272134036
 H    3.286997252428    2.176846459133    0.955932134036
LI   -0.021092747572    1.231306459133    1.512562134036
LI    0.211687252428   -1.235213540867   -1.494497865964
 S   -2.294124409592    0.157534321982    0.835568133996
 S   -2.099574732600   -0.067155304970   -1.251778400417
 C   -3.611937760146    1.433275904789    0.920350451732
 H   -4.551018012484    0.990386384753    0.567181876246
 H   -3.710540355944    1.689957097959    1.985656202010
 H   -3.333290372140    2.312110580930    0.326694703281
 C   -3.427570780242   -1.289372864501   -1.589393731113
 H   -4.397002118077   -0.806869694094   -1.416595187512
 H   -3.334966600523   -1.546170996122   -2.655622397908
 H   -3.301217837694   -2.176550989083   -0.957278869105
