22

 H    4.722036860093   -0.993904009722   -0.550980259647
 H    3.881546860093   -1.693474009722   -1.969460259647
 H    3.504296860093   -2.315634009722   -0.310490259647
 C    3.782946860093   -1.436794009722   -0.904150259647
 S    2.465136860093   -0.161054009722   -0.819370259647
 S    2.270586860093    0.063635990278    1.267979740353
 C    3.598586860093    1.285855990278    1.605589740353
 H    4.568026860093    0.803355990278    1.432789740353
 H    3.505986860093    1.542655990278    2.671819740353
 H    3.472236860093    2.173035990278    0.973479740353
LI    0.164146860093    1.227495990278    1.530109740353
LI    0.396926860093   -1.239024009722   -1.476950259647
 S   -2.507018589384    0.161913658840    0.815400831218
 S   -2.312468912391   -0.062775968111   -1.271945703194
 C   -3.824831939937    1.437655241647    0.900183148955
 H   -4.763912192275    0.994765721612    0.547014573469
 H   -3.923434535735    1.694336434818    1.965488899232
 H   -3.546184551932    2.316489917789    0.306527400503
 C   -3.640464960033   -1.284993527642   -1.609561033891
 H   -4.609896297869   -0.802490357236   -1.436762490290
 H   -3.547860780315   -1.541791659264   -2.675789700685
 H   -3.514112017485   -2.172171652224   -0.977446171882
