22

 H    4.860966565841   -0.996761861364   -0.537819554909
 H    4.020476565841   -1.696331861364   -1.956299554909
 H    3.643226565841   -2.318491861364   -0.297329554909
 C    3.921876565841   -1.439651861364   -0.890989554909
 S    2.604066565841   -0.163911861364   -0.806209554909
 S    2.409516565841    0.060778138636    1.281140445091
 C    3.737516565841    1.282998138636    1.618750445091
 H    4.706956565841    0.800498138636    1.445950445091
 H    3.644916565841    1.539798138636    2.684980445091
 H    3.611166565841    2.170178138636    0.986640445091
LI    0.303076565841    1.224638138636    1.543270445091
LI    0.535856565841   -1.241881861364   -1.463789554909
 S   -2.666689224227    0.165198161484    0.800275354135
 S   -2.472139547235   -0.059491465467   -1.287071180277
 C   -3.984502574781    1.440939744291    0.885057671871
 H   -4.923582827119    0.998050224256    0.531889096385
 H   -4.083105170579    1.697620937462    1.950363422149
 H   -3.705855186775    2.319774420433    0.291401923420
 C   -3.800135594877   -1.281709024998   -1.624686510974
 H   -4.769566932712   -0.799205854592   -1.451887967373
 H   -3.707531415158   -1.538507156620   -2.690915177769
 H   -3.673782652329   -2.168887149580   -0.992571648966
