22

 H    4.907276467758   -0.997714478577   -0.533432653330
 H    4.066786467758   -1.697284478577   -1.951912653330
 H    3.689536467758   -2.319444478577   -0.292942653330
 C    3.968186467758   -1.440604478577   -0.886602653330
 S    2.650376467758   -0.164864478577   -0.801822653330
 S    2.455826467758    0.059825521423    1.285527346670
 C    3.783826467758    1.282045521423    1.623137346670
 H    4.753266467758    0.799545521423    1.450337346670
 H    3.691226467758    1.538845521423    2.689367346670
 H    3.657476467758    2.169225521423    0.991027346670
LI    0.349386467758    1.223685521423    1.547657346670
LI    0.582166467758   -1.242834478577   -1.459402653330
 S   -2.719912769175    0.166292995699    0.795233528440
 S   -2.525363092183   -0.058396631252   -1.292113005972
 C   -4.037726119728    1.442034578506    0.880015846177
 H   -4.976806372067    0.999145058470    0.526847270691
 H   -4.136328715527    1.698715771676    1.945321596455
 H   -3.759078731723    2.320869254647    0.286360097726
 C   -3.853359139825   -1.280614190783   -1.629728336669
 H   -4.822790477660   -0.798111020377   -1.456929793068
 H   -3.760754960106   -1.537412322405   -2.695957003463
 H   -3.727006197276   -2.167792315366   -0.997613474660
