22

 H    4.953586369674   -0.998667095791   -0.529045751750
 H    4.113096369674   -1.698237095791   -1.947525751750
 H    3.735846369674   -2.320397095791   -0.288555751750
 C    4.014496369674   -1.441557095791   -0.882215751750
 S    2.696686369674   -0.165817095791   -0.797435751750
 S    2.502136369674    0.058872904209    1.289914248250
 C    3.830136369674    1.281092904209    1.627524248250
 H    4.799576369674    0.798592904209    1.454724248250
 H    3.737536369674    1.537892904209    2.693754248250
 H    3.703786369674    2.168272904209    0.995414248250
LI    0.395696369674    1.222732904209    1.552044248250
LI    0.628476369674   -1.243787095791   -1.455015751750
 S   -2.773136314123    0.167387829914    0.790191702746
 S   -2.578586637131   -0.057301797038   -1.297154831666
 C   -4.090949664676    1.443129412720    0.874974020483
 H   -5.030029917015    1.000239892685    0.521805444997
 H   -4.189552260474    1.699810605891    1.940279770760
 H   -3.812302276671    2.321964088862    0.281318272031
 C   -3.906582684773   -1.279519356569   -1.634770162363
 H   -4.876014022608   -0.797016186163   -1.461971618762
 H   -3.813978505054   -1.536317488191   -2.700998829157
 H   -3.780229742224   -2.166697481151   -1.002655300354
