22

 H    4.999896271590   -0.999619713005   -0.524658850171
 H    4.159406271590   -1.699189713005   -1.943138850171
 H    3.782156271590   -2.321349713005   -0.284168850171
 C    4.060806271590   -1.442509713005   -0.877828850171
 S    2.742996271590   -0.166769713005   -0.793048850171
 S    2.548446271590    0.057920286995    1.294301149829
 C    3.876446271590    1.280140286995    1.631911149829
 H    4.845886271590    0.797640286995    1.459111149829
 H    3.783846271590    1.536940286995    2.698141149829
 H    3.750096271590    2.167320286995    0.999801149829
LI    0.442006271590    1.221780286995    1.556431149829
LI    0.674786271590   -1.244739713005   -1.450628850171
 S   -2.826359859071    0.168482664128    0.785149877052
 S   -2.631810182079   -0.056206962823   -1.302196657361
 C   -4.144173209624    1.444224246935    0.869932194788
 H   -5.083253461963    1.001334726900    0.516763619302
 H   -4.242775805422    1.700905440106    1.935237945066
 H   -3.865525821619    2.323058923077    0.276276446337
 C   -3.959806229720   -1.278424522354   -1.639811988057
 H   -4.929237567556   -0.795921351948   -1.467013444456
 H   -3.867202050002   -1.535222653976   -2.706040654852
 H   -3.833453287172   -2.165602646936   -1.007697126049
