22

 H    5.046206173506   -1.000572330219   -0.520271948592
 H    4.205716173506   -1.700142330219   -1.938751948592
 H    3.828466173506   -2.322302330219   -0.279781948592
 C    4.107116173506   -1.443462330219   -0.873441948592
 S    2.789306173506   -0.167722330219   -0.788661948592
 S    2.594756173506    0.056967669781    1.298688051408
 C    3.922756173506    1.279187669781    1.636298051408
 H    4.892196173506    0.796687669781    1.463498051408
 H    3.830156173506    1.535987669781    2.702528051408
 H    3.796406173506    2.166367669781    1.004188051408
LI    0.488316173506    1.220827669781    1.560818051408
LI    0.721096173506   -1.245692330219   -1.446241948592
 S   -2.879583404019    0.169577498343    0.780108051357
 S   -2.685033727026   -0.055112128609   -1.307238483055
 C   -4.197396754572    1.445319081150    0.864890369094
 H   -5.136477006910    1.002429561114    0.511721793608
 H   -4.295999350370    1.702000274320    1.930196119371
 H   -3.918749366567    2.324153757291    0.271234620643
 C   -4.013029774668   -1.277329688140   -1.644853813752
 H   -4.982461112504   -0.794826517733   -1.472055270151
 H   -3.920425594949   -1.534127819761   -2.711082480546
 H   -3.886676832120   -2.164507812722   -1.012738951743
