22

 H    5.416685388836   -1.008193267929   -0.485176735958
 H    4.576195388836   -1.707763267929   -1.903656735958
 H    4.198945388836   -2.329923267929   -0.244686735958
 C    4.477595388836   -1.451083267929   -0.838346735958
 S    3.159785388836   -0.175343267929   -0.753566735958
 S    2.965235388836    0.049346732071    1.333783264042
 C    4.293235388836    1.271566732071    1.671393264042
 H    5.262675388836    0.789066732071    1.498593264042
 H    4.200635388836    1.528366732071    2.737623264042
 H    4.166885388836    2.158746732071    1.039283264042
LI    0.858795388836    1.213206732071    1.595913264042
LI    1.091575388836   -1.253313267929   -1.411146735958
 S   -3.305371763601    0.178336172060    0.739773445802
 S   -3.110822086609   -0.046353454891   -1.347573088610
 C   -4.623185114155    1.454077754867    0.824555763539
 H   -5.562265366493    1.011188234831    0.471387188053
 H   -4.721787709953    1.710758948037    1.889861513816
 H   -4.344537726149    2.332912431008    0.230900015088
 C   -4.438818134251   -1.268571014422   -1.685188419307
 H   -5.408249472086   -0.786067844016   -1.512389875706
 H   -4.346213954532   -1.525369146044   -2.751417086101
 H   -4.312465191703   -2.155749139005   -1.053073557298
