22

 H    5.555615094585   -1.011051119570   -0.472016031220
 H    4.715125094585   -1.710621119570   -1.890496031220
 H    4.337875094585   -2.332781119570   -0.231526031220
 C    4.616525094585   -1.453941119570   -0.825186031220
 S    3.298715094585   -0.178201119570   -0.740406031220
 S    3.104165094585    0.046488880430    1.346943968780
 C    4.432165094585    1.268708880430    1.684553968780
 H    5.401605094585    0.786208880430    1.511753968780
 H    4.339565094585    1.525508880430    2.750783968780
 H    4.305815094585    2.155888880430    1.052443968780
LI    0.997725094585    1.210348880430    1.609073968780
LI    1.230505094585   -1.256171119570   -1.397986031220
 S   -3.465042398445    0.181620674704    0.724647968719
 S   -3.270492721453   -0.043068952248   -1.362698565693
 C   -4.782855748998    1.457362257511    0.809430286456
 H   -5.721936001337    1.014472737475    0.456261710970
 H   -4.881458344796    1.714043450681    1.874736036733
 H   -4.504208360993    2.336196933652    0.215774538004
 C   -4.598488769095   -1.265286511779   -1.700313896390
 H   -5.567920106930   -0.782783341372   -1.527515352789
 H   -4.505884589376   -1.522084643400   -2.766542563184
 H   -4.472135826546   -2.152464636361   -1.068199034381
