22

 H    5.787164604167   -1.015814205639   -0.450081523324
 H    4.946674604167   -1.715384205639   -1.868561523324
 H    4.569424604167   -2.337544205639   -0.209591523324
 C    4.848074604167   -1.458704205639   -0.803251523324
 S    3.530264604167   -0.182964205639   -0.718471523324
 S    3.335714604167    0.041725794361    1.368878476676
 C    4.663714604167    1.263945794361    1.706488476676
 H    5.633154604167    0.781445794361    1.533688476676
 H    4.571114604167    1.520745794361    2.772718476676
 H    4.537364604167    2.151125794361    1.074378476676
LI    1.229274604167    1.205585794361    1.631008476676
LI    1.462054604167   -1.260934205639   -1.376051523324
 S   -3.731160123184    0.187094845777    0.699438840247
 S   -3.536610446192   -0.037594781174   -1.387907694165
 C   -5.048973473738    1.462836428584    0.784221157984
 H   -5.988053726076    1.019946908548    0.431052582498
 H   -5.147576069536    1.719517621754    1.849526908261
 H   -4.770326085732    2.341671104725    0.190565409533
 C   -4.864606493834   -1.259812340705   -1.725523024862
 H   -5.834037831669   -0.777309170299   -1.552724481261
 H   -4.772002314115   -1.516610472327   -2.791751691656
 H   -4.738253551285   -2.146990465288   -1.093408162853
