22

 H    5.833474506083   -1.016766822852   -0.445694621744
 H    4.992984506083   -1.716336822852   -1.864174621744
 H    4.615734506083   -2.338496822852   -0.205204621744
 C    4.894384506083   -1.459656822852   -0.798864621744
 S    3.576574506083   -0.183916822852   -0.714084621744
 S    3.382024506083    0.040773177148    1.373265378256
 C    4.710024506083    1.262993177148    1.710875378256
 H    5.679464506083    0.780493177148    1.538075378256
 H    4.617424506083    1.519793177148    2.777105378256
 H    4.583674506083    2.150173177148    1.078765378256
LI    1.275584506083    1.204633177148    1.635395378256
LI    1.508364506083   -1.261886822852   -1.371664621744
 S   -3.784383668132    0.188189679992    0.694397014553
 S   -3.589833991140   -0.036499946960   -1.392949519859
 C   -5.102197018685    1.463931262799    0.779179332289
 H   -6.041277271024    1.021041742763    0.426010756803
 H   -5.200799614483    1.720612455969    1.844485082567
 H   -4.823549630680    2.342765938940    0.185523583838
 C   -4.917830038782   -1.258717506491   -1.730564850556
 H   -5.887261376617   -0.776214336085   -1.557766306955
 H   -4.825225859063   -1.515515638113   -2.796793517351
 H   -4.791477096233   -2.145895631073   -1.098449988548
