22

 H    6.157643819497   -1.023435143349   -0.414986310689
 H    5.317153819497   -1.723005143349   -1.833466310689
 H    4.939903819497   -2.345165143349   -0.174496310689
 C    5.218553819497   -1.466325143349   -0.768156310689
 S    3.900743819497   -0.190585143349   -0.683376310689
 S    3.706193819497    0.034104856651    1.403973689311
 C    5.034193819497    1.256324856651    1.741583689311
 H    6.003633819497    0.773824856651    1.568783689311
 H    4.941593819497    1.513124856651    2.807813689311
 H    4.907843819497    2.143504856651    1.109473689311
LI    1.599753819497    1.197964856651    1.666103689311
LI    1.832533819497   -1.268555143349   -1.340956310689
 S   -4.156948482767    0.195853519494    0.659104234692
 S   -3.962398805775   -0.028836107457   -1.428242299720
 C   -5.474761833320    1.471595102301    0.743886552429
 H   -6.413842085659    1.028705582266    0.390717976943
 H   -5.573364429118    1.728276295472    1.809192302706
 H   -5.196114445315    2.350429778442    0.150230803977
 C   -5.290394853417   -1.251053666988   -1.765857630417
 H   -6.259826191252   -0.768550496582   -1.593059086816
 H   -5.197790673698   -1.507851798610   -2.832086297211
 H   -5.164041910868   -2.138231791571   -1.133742768408
