22

 H    6.203953721413   -1.024387760562   -0.410599409110
 H    5.363463721413   -1.723957760562   -1.829079409110
 H    4.986213721413   -2.346117760562   -0.170109409110
 C    5.264863721413   -1.467277760562   -0.763769409110
 S    3.947053721413   -0.191537760562   -0.678989409110
 S    3.752503721413    0.033152239438    1.408360590890
 C    5.080503721413    1.255372239438    1.745970590890
 H    6.049943721413    0.772872239438    1.573170590890
 H    4.987903721413    1.512172239438    2.812200590890
 H    4.954153721413    2.142552239438    1.113860590890
LI    1.646063721413    1.197012239438    1.670490590890
LI    1.878843721413   -1.269507760562   -1.336569409110
 S   -4.210172027715    0.196948353709    0.654062408998
 S   -4.015622350722   -0.027741273243   -1.433284125415
 C   -5.527985378268    1.472689936516    0.738844726734
 H   -6.467065630606    1.029800416480    0.385676151248
 H   -5.626587974066    1.729371129686    1.804150477012
 H   -5.249337990263    2.351524612657    0.145188978283
 C   -5.343618398364   -1.249958832774   -1.770899456111
 H   -6.313049736200   -0.767455662368   -1.598100912510
 H   -5.251014218646   -1.506756964395   -2.837128122906
 H   -5.217265455816   -2.137136957356   -1.138784594103
