22

 H    6.296573525245   -1.026292994990   -0.401825605952
 H    5.456083525245   -1.725862994990   -1.820305605952
 H    5.078833525245   -2.348022994990   -0.161335605952
 C    5.357483525245   -1.469182994990   -0.754995605952
 S    4.039673525245   -0.193442994990   -0.670215605952
 S    3.845123525245    0.031247005010    1.417134394048
 C    5.173123525245    1.253467005010    1.754744394048
 H    6.142563525245    0.770967005010    1.581944394048
 H    5.080523525245    1.510267005010    2.820974394048
 H    5.046773525245    2.140647005010    1.122634394048
LI    1.738683525245    1.195107005010    1.679264394048
LI    1.971463525245   -1.271412994990   -1.327795605952
 S   -4.316619117610    0.199138022138    0.643978757609
 S   -4.122069440618   -0.025551604813   -1.443367776803
 C   -5.634432468164    1.474879604945    0.728761075345
 H   -6.573512720502    1.031990084909    0.375592499859
 H   -5.733035063962    1.731560798115    1.794066825623
 H   -5.355785080158    2.353714281086    0.135105326894
 C   -5.450065488260   -1.247769164344   -1.780983107500
 H   -6.419496826096   -0.765265993938   -1.608184563899
 H   -5.357461308541   -1.504567295966   -2.847211774295
 H   -5.323712545712   -2.134947288927   -1.148868245492
