22

 H    6.389193329078   -1.028198229417   -0.393051802793
 H    5.548703329078   -1.727768229417   -1.811531802793
 H    5.171453329078   -2.349928229417   -0.152561802793
 C    5.450103329078   -1.471088229417   -0.746221802793
 S    4.132293329078   -0.195348229417   -0.661441802793
 S    3.937743329078    0.029341770583    1.425908197207
 C    5.265743329078    1.251561770583    1.763518197207
 H    6.235183329078    0.769061770583    1.590718197207
 H    5.173143329078    1.508361770583    2.829748197207
 H    5.139393329078    2.138741770583    1.131408197207
LI    1.831303329078    1.193201770583    1.688038197207
LI    2.064083329078   -1.273318229417   -1.319021802793
 S   -4.423066207506    0.201327690567    0.633895106220
 S   -4.228516530514   -0.023361936384   -1.453451428192
 C   -5.740879558059    1.477069273374    0.718677423957
 H   -6.679959810398    1.034179753339    0.365508848471
 H   -5.839482153858    1.733750466545    1.783983174234
 H   -5.462232170054    2.355903949516    0.125021675505
 C   -5.556512578156   -1.245579495915   -1.791066758889
 H   -6.525943915991   -0.763076325509   -1.618268215288
 H   -5.463908398437   -1.502377627537   -2.857295425683
 H   -5.430159635607   -2.132757620497   -1.158951896880
