22

 H    6.435503230994   -1.029150846631   -0.388664901214
 H    5.595013230994   -1.728720846631   -1.807144901214
 H    5.217763230994   -2.350880846631   -0.148174901214
 C    5.496413230994   -1.472040846631   -0.741834901214
 S    4.178603230994   -0.196300846631   -0.657054901214
 S    3.984053230994    0.028389153369    1.430295098786
 C    5.312053230994    1.250609153369    1.767905098786
 H    6.281493230994    0.768109153369    1.595105098786
 H    5.219453230994    1.507409153369    2.834135098786
 H    5.185703230994    2.137789153369    1.135795098786
LI    1.877613230994    1.192249153369    1.692425098786
LI    2.110393230994   -1.274270846631   -1.314634901214
 S   -4.476289752454    0.202422524782    0.628853280526
 S   -4.281740075462   -0.022267102170   -1.458493253886
 C   -5.794103103007    1.478164107589    0.713635598262
 H   -6.733183355346    1.035274587553    0.360467022776
 H   -5.892705698805    1.734845300759    1.778941348540
 H   -5.515455715002    2.356998783730    0.119979849811
 C   -5.609736123104   -1.244484661701   -1.796108584583
 H   -6.579167460939   -0.761981491294   -1.623310040982
 H   -5.517131943385   -1.501282793322   -2.862337251378
 H   -5.483383180555   -2.131662786283   -1.163993722575
