22

 H    6.528123034827   -1.031056081059   -0.379891098055
 H    5.687633034827   -1.730626081059   -1.798371098055
 H    5.310383034827   -2.352786081059   -0.139401098055
 C    5.589033034827   -1.473946081059   -0.733061098055
 S    4.271223034827   -0.198206081059   -0.648281098055
 S    4.076673034827    0.026483918941    1.439068901945
 C    5.404673034827    1.248703918941    1.776678901945
 H    6.374113034827    0.766203918941    1.603878901945
 H    5.312073034827    1.505503918941    2.842908901945
 H    5.278323034827    2.135883918941    1.144568901945
LI    1.970233034827    1.190343918941    1.701198901945
LI    2.203013034827   -1.276176081059   -1.305861098055
 S   -4.582736842350    0.204612193211    0.618769629137
 S   -4.388187165357   -0.020077433740   -1.468576905275
 C   -5.900550192903    1.480353776018    0.703551946874
 H   -6.839630445241    1.037464255983    0.350383371387
 H   -5.999152788701    1.737034969189    1.768857697151
 H   -5.621902804898    2.359188452160    0.109896198422
 C   -5.716183212999   -1.242294993271   -1.806192235972
 H   -6.685614550835   -0.759791822865   -1.633393692371
 H   -5.623579033280   -1.499093124893   -2.872420902766
 H   -5.589830270451   -2.129473117853   -1.174077373964
