22

 H    6.574432936743   -1.032008698272   -0.375504196476
 H    5.733942936743   -1.731578698272   -1.793984196476
 H    5.356692936743   -2.353738698272   -0.135014196476
 C    5.635342936743   -1.474898698272   -0.728674196476
 S    4.317532936743   -0.199158698272   -0.643894196476
 S    4.122982936743    0.025531301728    1.443455803524
 C    5.450982936743    1.247751301728    1.781065803524
 H    6.420422936743    0.765251301728    1.608265803524
 H    5.358382936743    1.504551301728    2.847295803524
 H    5.324632936743    2.134931301728    1.148955803524
LI    2.016542936743    1.189391301728    1.705585803524
LI    2.249322936743   -1.277128698272   -1.301474196476
 S   -4.635960387298    0.205707027426    0.613727803443
 S   -4.441410710305   -0.018982599526   -1.473618730970
 C   -5.953773737851    1.481448610233    0.698510121179
 H   -6.892853990189    1.038559090197    0.345341545693
 H   -6.052376333649    1.738129803403    1.763815871457
 H   -5.675126349846    2.360283286374    0.104854372728
 C   -5.769406757947   -1.241200159057   -1.811234061666
 H   -6.738838095783   -0.758696988650   -1.638435518065
 H   -5.676802578228   -1.497998290678   -2.877462728461
 H   -5.643053815399   -2.128378283639   -1.179119199658
