22

 H    6.713362642492   -1.034866549914   -0.362343491738
 H    5.872872642492   -1.734436549914   -1.780823491738
 H    5.495622642492   -2.356596549914   -0.121853491738
 C    5.774272642492   -1.477756549914   -0.715513491738
 S    4.456462642492   -0.202016549914   -0.630733491738
 S    4.261912642492    0.022673450086    1.456616508262
 C    5.589912642492    1.244893450086    1.794226508262
 H    6.559352642492    0.762393450086    1.621426508262
 H    5.497312642492    1.501693450086    2.860456508262
 H    5.463562642492    2.132073450086    1.162116508262
LI    2.155472642492    1.186533450086    1.718746508262
LI    2.388252642492   -1.279986549914   -1.288313491738
 S   -4.795631022141    0.208991530070    0.598602326359
 S   -4.601081345149   -0.015698096882   -1.488744208053
 C   -6.113444372694    1.484733112877    0.683384644096
 H   -7.052524625033    1.041843592841    0.330216068610
 H   -6.212046968493    1.741414306047    1.748690394374
 H   -5.834796984689    2.363567789018    0.089728895645
 C   -5.929077392791   -1.237915656413   -1.826359538750
 H   -6.898508730626   -0.755412486007   -1.653560995149
 H   -5.836473213072   -1.494713788034   -2.892588205544
 H   -5.802724450242   -2.125093780995   -1.194244676741
