22

 H    6.759672544408   -1.035819167127   -0.357956590159
 H    5.919182544408   -1.735389167127   -1.776436590159
 H    5.541932544408   -2.357549167127   -0.117466590159
 C    5.820582544408   -1.478709167127   -0.711126590159
 S    4.502772544408   -0.202969167127   -0.626346590159
 S    4.308222544408    0.021720832873    1.461003409841
 C    5.636222544408    1.243940832873    1.798613409841
 H    6.605662544408    0.761440832873    1.625813409841
 H    5.543622544408    1.500740832873    2.864843409841
 H    5.509872544408    2.131120832873    1.166503409841
LI    2.201782544408    1.185580832873    1.723133409841
LI    2.434562544408   -1.280939167127   -1.283926590159
 S   -4.848854567089    0.210086364284    0.593560500665
 S   -4.654304890097   -0.014603262667   -1.493786033747
 C   -6.166667917642    1.485827947091    0.678342818402
 H   -7.105748169981    1.042938427056    0.325174242916
 H   -6.265270513440    1.742509140262    1.743648568679
 H   -5.888020529637    2.364662623233    0.084687069950
 C   -5.982300937739   -1.236820822198   -1.831401364444
 H   -6.951732275574   -0.754317651792   -1.658602820843
 H   -5.889696758020   -1.493618953820   -2.897630031238
 H   -5.855947995190   -2.123998946780   -1.199286502435
