10

 C    1.858200126508   -0.713140923385   -1.297723934337
 C    0.758901126508    0.335719076615   -1.297723934337
 N   -0.520706873492   -0.168069923385   -1.297723934337
 H   -1.295379873492    0.482514076615   -1.297723934337
 H   -0.707377873492   -1.160120923385   -1.297723934337
 O    0.980493126508    1.548721076615   -1.297723934337
 H    2.828865126508   -0.203995923385   -1.297723934337
 H    1.778562126508   -1.354145923385   -0.405476934337
 H    1.778562126508   -1.354145923385   -2.189970934337
RB   -0.520706873492   -0.168069923385    0.902276065663
