10

 C    1.858200126508   -0.713140923385   -2.241523159309
 C    0.758901126508    0.335719076615   -2.241523159309
 N   -0.520706873492   -0.168069923385   -2.241523159309
 H   -1.295379873492    0.482514076615   -2.241523159309
 H   -0.707377873492   -1.160120923385   -2.241523159309
 O    0.980493126508    1.548721076615   -2.241523159309
 H    2.828865126508   -0.203995923385   -2.241523159309
 H    1.778562126508   -1.354145923385   -1.349276159309
 H    1.778562126508   -1.354145923385   -3.133770159309
RB   -0.520706873492   -0.168069923385    1.558476840691
