10

 C    1.858200126508   -0.713140923385   -3.067347481159
 C    0.758901126508    0.335719076615   -3.067347481159
 N   -0.520706873492   -0.168069923385   -3.067347481159
 H   -1.295379873492    0.482514076615   -3.067347481159
 H   -0.707377873492   -1.160120923385   -3.067347481159
 O    0.980493126508    1.548721076615   -3.067347481159
 H    2.828865126508   -0.203995923385   -3.067347481159
 H    1.778562126508   -1.354145923385   -2.175100481159
 H    1.778562126508   -1.354145923385   -3.959594481159
RB   -0.520706873492   -0.168069923385    2.132652518841
