10

 C    1.858200126508   -0.713140923385   -4.247096512375
 C    0.758901126508    0.335719076615   -4.247096512375
 N   -0.520706873492   -0.168069923385   -4.247096512375
 H   -1.295379873492    0.482514076615   -4.247096512375
 H   -0.707377873492   -1.160120923385   -4.247096512375
 O    0.980493126508    1.548721076615   -4.247096512375
 H    2.828865126508   -0.203995923385   -4.247096512375
 H    1.778562126508   -1.354145923385   -3.354849512375
 H    1.778562126508   -1.354145923385   -5.139343512375
RB   -0.520706873492   -0.168069923385    2.952903487625
