10

 C    1.858200126508   -0.713140923385   -5.249883188907
 C    0.758901126508    0.335719076615   -5.249883188907
 N   -0.520706873492   -0.168069923385   -5.249883188907
 H   -1.295379873492    0.482514076615   -5.249883188907
 H   -0.707377873492   -1.160120923385   -5.249883188907
 O    0.980493126508    1.548721076615   -5.249883188907
 H    2.828865126508   -0.203995923385   -5.249883188907
 H    1.778562126508   -1.354145923385   -4.357636188907
 H    1.778562126508   -1.354145923385   -6.142130188907
RB   -0.520706873492   -0.168069923385    3.650116811093
