12

 C   -1.890759527728    1.034668430480   -0.642234555344
 C   -0.778417527728    0.015190430480   -0.642234555344
 O   -1.282748527728   -1.251262569520   -0.642234555344
 C   -0.268282527728   -2.285001569520   -0.642234555344
 O    0.419222472272    0.259683430480   -0.642234555344
 H   -1.458189527728    2.041678430480   -0.642234555344
 H   -2.523096527728    0.892096430480    0.246380444656
 H   -2.523096527728    0.892096430480   -1.530849555344
 H   -0.822379527728   -3.230125569520   -0.642234555344
 H    0.361512472272   -2.198702569520    0.253955444656
 H    0.361512472272   -2.198702569520   -1.538424555344
CS    0.419222472272    0.259683430480    0.357765444656
