12

 C   -1.890759527728    1.034668430480   -0.899128377482
 C   -0.778417527728    0.015190430480   -0.899128377482
 O   -1.282748527728   -1.251262569520   -0.899128377482
 C   -0.268282527728   -2.285001569520   -0.899128377482
 O    0.419222472272    0.259683430480   -0.899128377482
 H   -1.458189527728    2.041678430480   -0.899128377482
 H   -2.523096527728    0.892096430480   -0.010513377482
 H   -2.523096527728    0.892096430480   -1.787743377482
 H   -0.822379527728   -3.230125569520   -0.899128377482
 H    0.361512472272   -2.198702569520   -0.002938377482
 H    0.361512472272   -2.198702569520   -1.795318377482
CS    0.419222472272    0.259683430480    0.500871622518
