12

 C   -1.890759527728    1.034668430480   -6.422345553444
 C   -0.778417527728    0.015190430480   -6.422345553444
 O   -1.282748527728   -1.251262569520   -6.422345553444
 C   -0.268282527728   -2.285001569520   -6.422345553444
 O    0.419222472272    0.259683430480   -6.422345553444
 H   -1.458189527728    2.041678430480   -6.422345553444
 H   -2.523096527728    0.892096430480   -5.533730553444
 H   -2.523096527728    0.892096430480   -7.310960553444
 H   -0.822379527728   -3.230125569520   -6.422345553444
 H    0.361512472272   -2.198702569520   -5.526155553444
 H    0.361512472272   -2.198702569520   -7.318535553444
CS    0.419222472272    0.259683430480    3.577654446556
