12

 C   -1.890759527728    1.034668430480   -1.926703666033
 C   -0.778417527728    0.015190430480   -1.926703666033
 O   -1.282748527728   -1.251262569520   -1.926703666033
 C   -0.268282527728   -2.285001569520   -1.926703666033
 O    0.419222472272    0.259683430480   -1.926703666033
 H   -1.458189527728    2.041678430480   -1.926703666033
 H   -2.523096527728    0.892096430480   -1.038088666033
 H   -2.523096527728    0.892096430480   -2.815318666033
 H   -0.822379527728   -3.230125569520   -1.926703666033
 H    0.361512472272   -2.198702569520   -1.030513666033
 H    0.361512472272   -2.198702569520   -2.822893666033
CS    0.419222472272    0.259683430480    1.073296333967
