12

 C   -1.890759527728    1.034668430480   -2.247820943705
 C   -0.778417527728    0.015190430480   -2.247820943705
 O   -1.282748527728   -1.251262569520   -2.247820943705
 C   -0.268282527728   -2.285001569520   -2.247820943705
 O    0.419222472272    0.259683430480   -2.247820943705
 H   -1.458189527728    2.041678430480   -2.247820943705
 H   -2.523096527728    0.892096430480   -1.359205943705
 H   -2.523096527728    0.892096430480   -3.136435943705
 H   -0.822379527728   -3.230125569520   -2.247820943705
 H    0.361512472272   -2.198702569520   -1.351630943705
 H    0.361512472272   -2.198702569520   -3.144010943705
CS    0.419222472272    0.259683430480    1.252179056295
