12

 C   -1.890759527728    1.034668430480   -2.504714765843
 C   -0.778417527728    0.015190430480   -2.504714765843
 O   -1.282748527728   -1.251262569520   -2.504714765843
 C   -0.268282527728   -2.285001569520   -2.504714765843
 O    0.419222472272    0.259683430480   -2.504714765843
 H   -1.458189527728    2.041678430480   -2.504714765843
 H   -2.523096527728    0.892096430480   -1.616099765843
 H   -2.523096527728    0.892096430480   -3.393329765843
 H   -0.822379527728   -3.230125569520   -2.504714765843
 H    0.361512472272   -2.198702569520   -1.608524765843
 H    0.361512472272   -2.198702569520   -3.400904765843
CS    0.419222472272    0.259683430480    1.395285234157
