12

 C   -1.890759527728    1.034668430480   -3.275396232257
 C   -0.778417527728    0.015190430480   -3.275396232257
 O   -1.282748527728   -1.251262569520   -3.275396232257
 C   -0.268282527728   -2.285001569520   -3.275396232257
 O    0.419222472272    0.259683430480   -3.275396232257
 H   -1.458189527728    2.041678430480   -3.275396232257
 H   -2.523096527728    0.892096430480   -2.386781232257
 H   -2.523096527728    0.892096430480   -4.164011232257
 H   -0.822379527728   -3.230125569520   -3.275396232257
 H    0.361512472272   -2.198702569520   -2.379206232257
 H    0.361512472272   -2.198702569520   -4.171586232257
CS    0.419222472272    0.259683430480    1.824603767743
