12

 C   -1.890759527728    1.034668430480   -3.917630787601
 C   -0.778417527728    0.015190430480   -3.917630787601
 O   -1.282748527728   -1.251262569520   -3.917630787601
 C   -0.268282527728   -2.285001569520   -3.917630787601
 O    0.419222472272    0.259683430480   -3.917630787601
 H   -1.458189527728    2.041678430480   -3.917630787601
 H   -2.523096527728    0.892096430480   -3.029015787601
 H   -2.523096527728    0.892096430480   -4.806245787601
 H   -0.822379527728   -3.230125569520   -3.917630787601
 H    0.361512472272   -2.198702569520   -3.021440787601
 H    0.361512472272   -2.198702569520   -4.813820787601
CS    0.419222472272    0.259683430480    2.182369212399
