12

 C   -1.890759527728    1.034668430480   -4.752535709549
 C   -0.778417527728    0.015190430480   -4.752535709549
 O   -1.282748527728   -1.251262569520   -4.752535709549
 C   -0.268282527728   -2.285001569520   -4.752535709549
 O    0.419222472272    0.259683430480   -4.752535709549
 H   -1.458189527728    2.041678430480   -4.752535709549
 H   -2.523096527728    0.892096430480   -3.863920709549
 H   -2.523096527728    0.892096430480   -5.641150709549
 H   -0.822379527728   -3.230125569520   -4.752535709549
 H    0.361512472272   -2.198702569520   -3.856345709549
 H    0.361512472272   -2.198702569520   -5.648725709549
CS    0.419222472272    0.259683430480    2.647464290451
