12

 C   -1.890759527728    1.034668430480   -5.458993720428
 C   -0.778417527728    0.015190430480   -5.458993720428
 O   -1.282748527728   -1.251262569520   -5.458993720428
 C   -0.268282527728   -2.285001569520   -5.458993720428
 O    0.419222472272    0.259683430480   -5.458993720428
 H   -1.458189527728    2.041678430480   -5.458993720428
 H   -2.523096527728    0.892096430480   -4.570378720428
 H   -2.523096527728    0.892096430480   -6.347608720428
 H   -0.822379527728   -3.230125569520   -5.458993720428
 H    0.361512472272   -2.198702569520   -4.562803720428
 H    0.361512472272   -2.198702569520   -6.355183720428
CS    0.419222472272    0.259683430480    3.041006279572
