12

 C   -1.890759527728    1.034668430480   -5.587440631496
 C   -0.778417527728    0.015190430480   -5.587440631496
 O   -1.282748527728   -1.251262569520   -5.587440631496
 C   -0.268282527728   -2.285001569520   -5.587440631496
 O    0.419222472272    0.259683430480   -5.587440631496
 H   -1.458189527728    2.041678430480   -5.587440631496
 H   -2.523096527728    0.892096430480   -4.698825631496
 H   -2.523096527728    0.892096430480   -6.476055631496
 H   -0.822379527728   -3.230125569520   -5.587440631496
 H    0.361512472272   -2.198702569520   -4.691250631496
 H    0.361512472272   -2.198702569520   -6.483630631496
CS    0.419222472272    0.259683430480    3.112559368504
