12

 C   -1.890759527728    1.034668430480   -5.972781364703
 C   -0.778417527728    0.015190430480   -5.972781364703
 O   -1.282748527728   -1.251262569520   -5.972781364703
 C   -0.268282527728   -2.285001569520   -5.972781364703
 O    0.419222472272    0.259683430480   -5.972781364703
 H   -1.458189527728    2.041678430480   -5.972781364703
 H   -2.523096527728    0.892096430480   -5.084166364703
 H   -2.523096527728    0.892096430480   -6.861396364703
 H   -0.822379527728   -3.230125569520   -5.972781364703
 H    0.361512472272   -2.198702569520   -5.076591364703
 H    0.361512472272   -2.198702569520   -6.868971364703
CS    0.419222472272    0.259683430480    3.327218635297
