18

 C   -2.796031603315    0.893408943329    0.000000000000
 H   -3.700441603315    1.512338943329    0.000000000000
 H   -2.797201603315    0.251438943329    0.893620000000
 H   -2.797201603315    0.251438943329   -0.893620000000
 C   -1.599181603315    1.792778943329    0.000000000000
 O   -1.504051603315    2.981338943329    0.000000000000
 O   -0.333891603315    0.997948943329    0.000000000000
 H    0.330688396685    1.719948943329    0.000000000000
NA    0.167598396685   -0.500931056671    1.855520000000
NA    0.167598396685   -0.500931056671   -1.855520000000
 O    0.205504624776   -0.614208526995    0.000000000000
 H   -0.459081908182   -1.336215491166    0.000000000000
 C    1.470788928074   -1.409034948441    0.000000000000
 O    1.375659563894   -2.597604097027    0.000000000000
 C    2.667645473042   -0.509661409321    0.000000000000
 H    3.572049559703   -1.128589495718    0.000000000000
 H    2.668807343145    0.132303616127   -0.893622768432
 H    2.668807343145    0.132303616127    0.893622768432
