18

 C   -3.748117491330    3.739020938405    0.000000000000
 H   -4.652527491330    4.357950938405    0.000000000000
 H   -3.749287491330    3.097050938405    0.893620000000
 H   -3.749287491330    3.097050938405   -0.893620000000
 C   -2.551267491330    4.638390938405    0.000000000000
 O   -2.456137491330    5.826950938405    0.000000000000
 O   -1.285977491330    3.843560938405    0.000000000000
 H   -0.621397491330    4.565560938405    0.000000000000
NA   -0.784487491330    2.344680938405    1.855520000000
NA   -0.784487491330    2.344680938405   -1.855520000000
 O    1.886941497439   -5.639718298795    0.000000000000
 H    1.222354964481   -6.361725262966    0.000000000000
 C    3.152225800737   -6.434544720240    0.000000000000
 O    3.057096436557   -7.623113868826    0.000000000000
 C    4.349082345705   -5.535171181121    0.000000000000
 H    5.253486432366   -6.154099267517    0.000000000000
 H    4.350244215808   -4.893206155673   -0.893622768432
 H    4.350244215808   -4.893206155673    0.893622768432
