18

 C   -2.841915260568    1.030546870802    0.000000000000
 H   -3.746325260568    1.649476870802    0.000000000000
 H   -2.843085260568    0.388576870802    0.893620000000
 H   -2.843085260568    0.388576870802   -0.893620000000
 C   -1.645065260568    1.929916870802    0.000000000000
 O   -1.549935260568    3.118476870802    0.000000000000
 O   -0.379775260568    1.135086870802    0.000000000000
 H    0.284804739432    1.857086870802    0.000000000000
NA    0.121714739432   -0.363793129198    1.855520000000
NA    0.121714739432   -0.363793129198   -1.855520000000
 O    0.286537727073   -0.856401769010    0.000000000000
 H   -0.378048805885   -1.578408733181    0.000000000000
 C    1.551822030371   -1.651228190455    0.000000000000
 O    1.456692666191   -2.839797339041    0.000000000000
 C    2.748678575339   -0.751854651336    0.000000000000
 H    3.653082662000   -1.370782737732    0.000000000000
 H    2.749840445442   -0.109889625888   -0.893622768432
 H    2.749840445442   -0.109889625888    0.893622768432
