18

 C   -2.864857089195    1.099115834539    0.000000000000
 H   -3.769267089195    1.718045834539    0.000000000000
 H   -2.866027089195    0.457145834539    0.893620000000
 H   -2.866027089195    0.457145834539   -0.893620000000
 C   -1.668007089195    1.998485834539    0.000000000000
 O   -1.572877089195    3.187045834539    0.000000000000
 O   -0.402717089195    1.203655834539    0.000000000000
 H    0.261862910805    1.925655834539    0.000000000000
NA    0.098772910805   -0.295224165461    1.855520000000
NA    0.098772910805   -0.295224165461   -1.855520000000
 O    0.327054278221   -0.977498390017    0.000000000000
 H   -0.337532254736   -1.699505354188    0.000000000000
 C    1.592338581520   -1.772324811462    0.000000000000
 O    1.497209217340   -2.960893960048    0.000000000000
 C    2.789195126487   -0.872951272343    0.000000000000
 H    3.693599213149   -1.491879358740    0.000000000000
 H    2.790356996590   -0.230986246895   -0.893622768432
 H    2.790356996590   -0.230986246895    0.893622768432
