18

 C   -2.876328003509    1.133400316407    0.000000000000
 H   -3.780738003509    1.752330316407    0.000000000000
 H   -2.877498003509    0.491430316407    0.893620000000
 H   -2.877498003509    0.491430316407   -0.893620000000
 C   -1.679478003509    2.032770316407    0.000000000000
 O   -1.584348003509    3.221330316407    0.000000000000
 O   -0.414188003509    1.237940316407    0.000000000000
 H    0.250391996491    1.959940316407    0.000000000000
NA    0.087301996491   -0.260939683593    1.855520000000
NA    0.087301996491   -0.260939683593   -1.855520000000
 O    0.347312553796   -1.038046700521    0.000000000000
 H   -0.317273979162   -1.760053664691    0.000000000000
 C    1.612596857094   -1.832873121966    0.000000000000
 O    1.517467492914   -3.021442270552    0.000000000000
 C    2.809453402062   -0.933499582847    0.000000000000
 H    3.713857488723   -1.552427669243    0.000000000000
 H    2.810615272165   -0.291534557399   -0.893622768432
 H    2.810615272165   -0.291534557399    0.893622768432
