18

 C   -2.899269832136    1.201969280144    0.000000000000
 H   -3.803679832136    1.820899280144    0.000000000000
 H   -2.900439832136    0.559999280144    0.893620000000
 H   -2.900439832136    0.559999280144   -0.893620000000
 C   -1.702419832136    2.101339280144    0.000000000000
 O   -1.607289832136    3.289899280144    0.000000000000
 O   -0.437129832136    1.306509280144    0.000000000000
 H    0.227450167864    2.028509280144    0.000000000000
NA    0.064360167864   -0.192370719856    1.855520000000
NA    0.064360167864   -0.192370719856   -1.855520000000
 O    0.387829104944   -1.159143321528    0.000000000000
 H   -0.276757428013   -1.881150285699    0.000000000000
 C    1.653113408242   -1.953969742973    0.000000000000
 O    1.557984044063   -3.142538891559    0.000000000000
 C    2.849969953210   -1.054596203854    0.000000000000
 H    3.754374039871   -1.673524290250    0.000000000000
 H    2.851131823313   -0.412631178406   -0.893622768432
 H    2.851131823313   -0.412631178406    0.893622768432
