18

 C   -2.956624403703    1.373391689486    0.000000000000
 H   -3.861034403703    1.992321689486    0.000000000000
 H   -2.957794403703    0.731421689486    0.893620000000
 H   -2.957794403703    0.731421689486   -0.893620000000
 C   -1.759774403703    2.272761689486    0.000000000000
 O   -1.664644403703    3.461321689486    0.000000000000
 O   -0.494484403703    1.477931689486    0.000000000000
 H    0.170095596297    2.199931689486    0.000000000000
NA    0.007005596297   -0.020948310514    1.855520000000
NA    0.007005596297   -0.020948310514   -1.855520000000
 O    0.489120482816   -1.461884874046    0.000000000000
 H   -0.175466050142   -2.183891838217    0.000000000000
 C    1.754404786114   -2.256711295491    0.000000000000
 O    1.659275421934   -3.445280444077    0.000000000000
 C    2.951261331081   -1.357337756372    0.000000000000
 H    3.855665417743   -1.976265842768    0.000000000000
 H    2.952423201184   -0.715372730924   -0.893622768432
 H    2.952423201184   -0.715372730924    0.893622768432
