18

 C   -3.048391718210    1.647667544433    0.000000000000
 H   -3.952801718210    2.266597544433    0.000000000000
 H   -3.049561718210    1.005697544433    0.893620000000
 H   -3.049561718210    1.005697544433   -0.893620000000
 C   -1.851541718210    2.547037544433    0.000000000000
 O   -1.756411718210    3.735597544433    0.000000000000
 O   -0.586251718210    1.752207544433    0.000000000000
 H    0.078328281790    2.474207544433    0.000000000000
NA   -0.084761718210    0.253327544433    1.855520000000
NA   -0.084761718210    0.253327544433   -1.855520000000
 O    0.651186687410   -1.946271358075    0.000000000000
 H   -0.013399845548   -2.668278322246    0.000000000000
 C    1.916470990708   -2.741097779520    0.000000000000
 O    1.821341626528   -3.929666928106    0.000000000000
 C    3.113327535675   -1.841724240401    0.000000000000
 H    4.017731622337   -2.460652326797    0.000000000000
 H    3.114489405778   -1.199759214953   -0.893622768432
 H    3.114489405778   -1.199759214953    0.893622768432
