18

 C   -3.082804461151    1.750520990038    0.000000000000
 H   -3.987214461151    2.369450990038    0.000000000000
 H   -3.083974461151    1.108550990038    0.893620000000
 H   -3.083974461151    1.108550990038   -0.893620000000
 C   -1.885954461151    2.649890990038    0.000000000000
 O   -1.790824461151    3.838450990038    0.000000000000
 O   -0.620664461151    1.855060990038    0.000000000000
 H    0.043915538849    2.577060990038    0.000000000000
NA   -0.119174461151    0.356180990038    1.855520000000
NA   -0.119174461151    0.356180990038   -1.855520000000
 O    0.711961514132   -2.127916289586    0.000000000000
 H    0.047374981175   -2.849923253756    0.000000000000
 C    1.977245817430   -2.922742711031    0.000000000000
 O    1.882116453251   -4.111311859617    0.000000000000
 C    3.174102362398   -2.023369171912    0.000000000000
 H    4.078506449059   -2.642297258308    0.000000000000
 H    3.175264232501   -1.381404146464   -0.893622768432
 H    3.175264232501   -1.381404146464    0.893622768432
