18

 C   -3.094275375464    1.784805471907    0.000000000000
 H   -3.998685375464    2.403735471907    0.000000000000
 H   -3.095445375464    1.142835471907    0.893620000000
 H   -3.095445375464    1.142835471907   -0.893620000000
 C   -1.897425375464    2.684175471907    0.000000000000
 O   -1.802295375464    3.872735471907    0.000000000000
 O   -0.632135375464    1.889345471907    0.000000000000
 H    0.032444624536    2.611345471907    0.000000000000
NA   -0.130645375464    0.390465471907    1.855520000000
NA   -0.130645375464    0.390465471907   -1.855520000000
 O    0.732219789707   -2.188464600089    0.000000000000
 H    0.067633256749   -2.910471564260    0.000000000000
 C    1.997504093005   -2.983291021534    0.000000000000
 O    1.902374728825   -4.171860170120    0.000000000000
 C    3.194360637972   -2.083917482415    0.000000000000
 H    4.098764724634   -2.702845568812    0.000000000000
 H    3.195522508075   -1.441952456967   -0.893622768432
 H    3.195522508075   -1.441952456967    0.893622768432
