18

 C   -3.105746289778    1.819089953775    0.000000000000
 H   -4.010156289778    2.438019953775    0.000000000000
 H   -3.106916289778    1.177119953775    0.893620000000
 H   -3.106916289778    1.177119953775   -0.893620000000
 C   -1.908896289778    2.718459953775    0.000000000000
 O   -1.813766289778    3.907019953775    0.000000000000
 O   -0.643606289778    1.923629953775    0.000000000000
 H    0.020973710222    2.645629953775    0.000000000000
NA   -0.142116289778    0.424749953775    1.855520000000
NA   -0.142116289778    0.424749953775   -1.855520000000
 O    0.752478065281   -2.249012910593    0.000000000000
 H    0.087891532323   -2.971019874764    0.000000000000
 C    2.017762368579   -3.043839332038    0.000000000000
 O    1.922633004399   -4.232408480624    0.000000000000
 C    3.214618913547   -2.144465792919    0.000000000000
 H    4.119023000208   -2.763393879315    0.000000000000
 H    3.215780783650   -1.502500767471   -0.893622768432
 H    3.215780783650   -1.502500767471    0.893622768432
