18

 C   -3.128688118404    1.887658917512    0.000000000000
 H   -4.033098118404    2.506588917512    0.000000000000
 H   -3.129858118404    1.245688917512    0.893620000000
 H   -3.129858118404    1.245688917512   -0.893620000000
 C   -1.931838118404    2.787028917512    0.000000000000
 O   -1.836708118404    3.975588917512    0.000000000000
 O   -0.666548118404    1.992198917512    0.000000000000
 H   -0.001968118404    2.714198917512    0.000000000000
NA   -0.165058118404    0.493318917512    1.855520000000
NA   -0.165058118404    0.493318917512   -1.855520000000
 O    0.792994616429   -2.370109531600    0.000000000000
 H    0.128408083472   -3.092116495771    0.000000000000
 C    2.058278919727   -3.164935953045    0.000000000000
 O    1.963149555548   -4.353505101631    0.000000000000
 C    3.255135464695   -2.265562413926    0.000000000000
 H    4.159539551356   -2.884490500323    0.000000000000
 H    3.256297334798   -1.623597388478   -0.893622768432
 H    3.256297334798   -1.623597388478    0.893622768432
