18

 C   -3.220455432912    2.161934772459    0.000000000000
 H   -4.124865432912    2.780864772459    0.000000000000
 H   -3.221625432912    1.519964772459    0.893620000000
 H   -3.221625432912    1.519964772459   -0.893620000000
 C   -2.023605432912    3.061304772459    0.000000000000
 O   -1.928475432912    4.249864772459    0.000000000000
 O   -0.758315432912    2.266474772459    0.000000000000
 H   -0.093735432912    2.988474772459    0.000000000000
NA   -0.256825432912    0.767594772459    1.855520000000
NA   -0.256825432912    0.767594772459   -1.855520000000
 O    0.955060821023   -2.854496015629    0.000000000000
 H    0.290474288066   -3.576502979800    0.000000000000
 C    2.220345124321   -3.649322437074    0.000000000000
 O    2.125215760142   -4.837891585660    0.000000000000
 C    3.417201669289   -2.749948897955    0.000000000000
 H    4.321605755950   -3.368876984351    0.000000000000
 H    3.418363539392   -2.107983872507   -0.893622768432
 H    3.418363539392   -2.107983872507    0.893622768432
