18

 C   -3.231926347225    2.196219254328    0.000000000000
 H   -4.136336347225    2.815149254328    0.000000000000
 H   -3.233096347225    1.554249254328    0.893620000000
 H   -3.233096347225    1.554249254328   -0.893620000000
 C   -2.035076347225    3.095589254328    0.000000000000
 O   -1.939946347225    4.284149254328    0.000000000000
 O   -0.769786347225    2.300759254328    0.000000000000
 H   -0.105206347225    3.022759254328    0.000000000000
NA   -0.268296347225    0.801879254328    1.855520000000
NA   -0.268296347225    0.801879254328   -1.855520000000
 O    0.975319096598   -2.915044326132    0.000000000000
 H    0.310732563640   -3.637051290303    0.000000000000
 C    2.240603399896   -3.709870747578    0.000000000000
 O    2.145474035716   -4.898439896164    0.000000000000
 C    3.437459944863   -2.810497208458    0.000000000000
 H    4.341864031525   -3.429425294855    0.000000000000
 H    3.438621814966   -2.168532183010   -0.893622768432
 H    3.438621814966   -2.168532183010    0.893622768432
