18

 C   -3.243397261539    2.230503736196    0.000000000000
 H   -4.147807261539    2.849433736196    0.000000000000
 H   -3.244567261539    1.588533736196    0.893620000000
 H   -3.244567261539    1.588533736196   -0.893620000000
 C   -2.046547261539    3.129873736196    0.000000000000
 O   -1.951417261539    4.318433736196    0.000000000000
 O   -0.781257261539    2.335043736196    0.000000000000
 H   -0.116677261539    3.057043736196    0.000000000000
NA   -0.279767261539    0.836163736196    1.855520000000
NA   -0.279767261539    0.836163736196   -1.855520000000
 O    0.995577372172   -2.975592636636    0.000000000000
 H    0.330990839214   -3.697599600807    0.000000000000
 C    2.260861675470   -3.770419058081    0.000000000000
 O    2.165732311290   -4.958988206667    0.000000000000
 C    3.457718220438   -2.871045518962    0.000000000000
 H    4.362122307099   -3.489973605359    0.000000000000
 H    3.458880090541   -2.229080493514   -0.893622768432
 H    3.458880090541   -2.229080493514    0.893622768432
