18

 C   -3.266339090166    2.299072699933    0.000000000000
 H   -4.170749090166    2.918002699933    0.000000000000
 H   -3.267509090166    1.657102699933    0.893620000000
 H   -3.267509090166    1.657102699933   -0.893620000000
 C   -2.069489090166    3.198442699933    0.000000000000
 O   -1.974359090166    4.387002699933    0.000000000000
 O   -0.804199090166    2.403612699933    0.000000000000
 H   -0.139619090166    3.125612699933    0.000000000000
NA   -0.302709090166    0.904732699933    1.855520000000
NA   -0.302709090166    0.904732699933   -1.855520000000
 O    1.036093923320   -3.096689257643    0.000000000000
 H    0.371507390363   -3.818696221814    0.000000000000
 C    2.301378226618   -3.891515679088    0.000000000000
 O    2.206248862439   -5.080084827675    0.000000000000
 C    3.498234771586   -2.992142139969    0.000000000000
 H    4.402638858247   -3.611070226366    0.000000000000
 H    3.499396641689   -2.350177114521   -0.893622768432
 H    3.499396641689   -2.350177114521    0.893622768432
