18

 C   -3.289280918793    2.367641663670    0.000000000000
 H   -4.193690918793    2.986571663670    0.000000000000
 H   -3.290450918793    1.725671663670    0.893620000000
 H   -3.290450918793    1.725671663670   -0.893620000000
 C   -2.092430918793    3.267011663670    0.000000000000
 O   -1.997300918793    4.455571663670    0.000000000000
 O   -0.827140918793    2.472181663670    0.000000000000
 H   -0.162560918793    3.194181663670    0.000000000000
NA   -0.325650918793    0.973301663670    1.855520000000
NA   -0.325650918793    0.973301663670   -1.855520000000
 O    1.076610474469   -3.217785878650    0.000000000000
 H    0.412023941511   -3.939792842821    0.000000000000
 C    2.341894777767   -4.012612300096    0.000000000000
 O    2.246765413587   -5.201181448682    0.000000000000
 C    3.538751322735   -3.113238760977    0.000000000000
 H    4.443155409396   -3.732166847373    0.000000000000
 H    3.539913192838   -2.471273735528   -0.893622768432
 H    3.539913192838   -2.471273735528    0.893622768432
