18

 C   -3.300751833106    2.401926145538    0.000000000000
 H   -4.205161833106    3.020856145538    0.000000000000
 H   -3.301921833106    1.759956145538    0.893620000000
 H   -3.301921833106    1.759956145538   -0.893620000000
 C   -2.103901833106    3.301296145538    0.000000000000
 O   -2.008771833106    4.489856145538    0.000000000000
 O   -0.838611833106    2.506466145538    0.000000000000
 H   -0.174031833106    3.228466145538    0.000000000000
NA   -0.337121833106    1.007586145538    1.855520000000
NA   -0.337121833106    1.007586145538   -1.855520000000
 O    1.096868750043   -3.278334189154    0.000000000000
 H    0.432282217085   -4.000341153325    0.000000000000
 C    2.362153053341   -4.073160610599    0.000000000000
 O    2.267023689161   -5.261729759185    0.000000000000
 C    3.559009598309   -3.173787071480    0.000000000000
 H    4.463413684970   -3.792715157877    0.000000000000
 H    3.560171468412   -2.531822046032   -0.893622768432
 H    3.560171468412   -2.531822046032    0.893622768432
