18

 C   -3.392519147614    2.676202000485    0.000000000000
 H   -4.296929147614    3.295132000485    0.000000000000
 H   -3.393689147614    2.034232000485    0.893620000000
 H   -3.393689147614    2.034232000485   -0.893620000000
 C   -2.195669147614    3.575572000485    0.000000000000
 O   -2.100539147614    4.764132000485    0.000000000000
 O   -0.930379147614    2.780742000485    0.000000000000
 H   -0.265799147614    3.502742000485    0.000000000000
NA   -0.428889147614    1.281862000485    1.855520000000
NA   -0.428889147614    1.281862000485   -1.855520000000
 O    1.258934954637   -3.762720673183    0.000000000000
 H    0.594348421679   -4.484727637354    0.000000000000
 C    2.524219257935   -4.557547094628    0.000000000000
 O    2.429089893755   -5.746116243214    0.000000000000
 C    3.721075802903   -3.658173555509    0.000000000000
 H    4.625479889564   -4.277101641905    0.000000000000
 H    3.722237673006   -3.016208530061   -0.893622768432
 H    3.722237673006   -3.016208530061    0.893622768432
