18

 C   -3.472815547808    2.916193373564    0.000000000000
 H   -4.377225547808    3.535123373564    0.000000000000
 H   -3.473985547808    2.274223373564    0.893620000000
 H   -3.473985547808    2.274223373564   -0.893620000000
 C   -2.275965547808    3.815563373564    0.000000000000
 O   -2.180835547808    5.004123373564    0.000000000000
 O   -1.010675547808    3.020733373564    0.000000000000
 H   -0.346095547808    3.742733373564    0.000000000000
NA   -0.509185547808    1.521853373564    1.855520000000
NA   -0.509185547808    1.521853373564   -1.855520000000
 O    1.400742883657   -4.186558846708    0.000000000000
 H    0.736156350699   -4.908565810879    0.000000000000
 C    2.666027186955   -4.981385268153    0.000000000000
 O    2.570897822775   -6.169954416739    0.000000000000
 C    3.862883731923   -4.082011729034    0.000000000000
 H    4.767287818584   -4.700939815431    0.000000000000
 H    3.864045602026   -3.440046703586   -0.893622768432
 H    3.864045602026   -3.440046703586    0.893622768432
