18

 C   -3.484286462121    2.950477855432    0.000000000000
 H   -4.388696462121    3.569407855432    0.000000000000
 H   -3.485456462121    2.308507855432    0.893620000000
 H   -3.485456462121    2.308507855432   -0.893620000000
 C   -2.287436462121    3.849847855432    0.000000000000
 O   -2.192306462121    5.038407855432    0.000000000000
 O   -1.022146462121    3.055017855432    0.000000000000
 H   -0.357566462121    3.777017855432    0.000000000000
NA   -0.520656462121    1.556137855432    1.855520000000
NA   -0.520656462121    1.556137855432   -1.855520000000
 O    1.421001159231   -4.247107157212    0.000000000000
 H    0.756414626273   -4.969114121383    0.000000000000
 C    2.686285462529   -5.041933578657    0.000000000000
 O    2.591156098349   -6.230502727243    0.000000000000
 C    3.883142007497   -4.142560039538    0.000000000000
 H    4.787546094158   -4.761488125934    0.000000000000
 H    3.884303877600   -3.500595014090   -0.893622768432
 H    3.884303877600   -3.500595014090    0.893622768432
