18

 C   -3.495757376435    2.984762337301    0.000000000000
 H   -4.400167376435    3.603692337301    0.000000000000
 H   -3.496927376435    2.342792337301    0.893620000000
 H   -3.496927376435    2.342792337301   -0.893620000000
 C   -2.298907376435    3.884132337301    0.000000000000
 O   -2.203777376435    5.072692337301    0.000000000000
 O   -1.033617376435    3.089302337301    0.000000000000
 H   -0.369037376435    3.811302337301    0.000000000000
NA   -0.532127376435    1.590422337301    1.855520000000
NA   -0.532127376435    1.590422337301   -1.855520000000
 O    1.441259434805   -4.307655467715    0.000000000000
 H    0.776672901848   -5.029662431886    0.000000000000
 C    2.706543738103   -5.102481889161    0.000000000000
 O    2.611414373924   -6.291051037747    0.000000000000
 C    3.903400283071   -4.203108350041    0.000000000000
 H    4.807804369732   -4.822036436438    0.000000000000
 H    3.904562153174   -3.561143324593   -0.893622768432
 H    3.904562153174   -3.561143324593    0.893622768432
