18

 C   -3.518699205061    3.053331301037    0.000000000000
 H   -4.423109205061    3.672261301037    0.000000000000
 H   -3.519869205061    2.411361301037    0.893620000000
 H   -3.519869205061    2.411361301037   -0.893620000000
 C   -2.321849205061    3.952701301037    0.000000000000
 O   -2.226719205061    5.141261301037    0.000000000000
 O   -1.056559205061    3.157871301037    0.000000000000
 H   -0.391979205061    3.879871301037    0.000000000000
NA   -0.555069205061    1.658991301037    1.855520000000
NA   -0.555069205061    1.658991301037   -1.855520000000
 O    1.481775985954   -4.428752088723    0.000000000000
 H    0.817189452996   -5.150759052893    0.000000000000
 C    2.747060289252   -5.223578510168    0.000000000000
 O    2.651930925072   -6.412147658754    0.000000000000
 C    3.943916834220   -4.324204971049    0.000000000000
 H    4.848320920881   -4.943133057445    0.000000000000
 H    3.945078704323   -3.682239945601   -0.893622768432
 H    3.945078704323   -3.682239945601    0.893622768432
