18

 C   -3.541641033688    3.121900264774    0.000000000000
 H   -4.446051033688    3.740830264774    0.000000000000
 H   -3.542811033688    2.479930264774    0.893620000000
 H   -3.542811033688    2.479930264774   -0.893620000000
 C   -2.344791033688    4.021270264774    0.000000000000
 O   -2.249661033688    5.209830264774    0.000000000000
 O   -1.079501033688    3.226440264774    0.000000000000
 H   -0.414921033688    3.948440264774    0.000000000000
NA   -0.578011033688    1.727560264774    1.855520000000
NA   -0.578011033688    1.727560264774   -1.855520000000
 O    1.522292537102   -4.549848709730    0.000000000000
 H    0.857706004145   -5.271855673901    0.000000000000
 C    2.787576840400   -5.344675131175    0.000000000000
 O    2.692447476221   -6.533244279761    0.000000000000
 C    3.984433385368   -4.445301592056    0.000000000000
 H    4.888837472029   -5.064229678452    0.000000000000
 H    3.985595255471   -3.803336566608   -0.893622768432
 H    3.985595255471   -3.803336566608    0.893622768432
