18

 C   -3.576053776629    3.224753710379    0.000000000000
 H   -4.480463776629    3.843683710379    0.000000000000
 H   -3.577223776629    2.582783710379    0.893620000000
 H   -3.577223776629    2.582783710379   -0.893620000000
 C   -2.379203776629    4.124123710379    0.000000000000
 O   -2.284073776629    5.312683710379    0.000000000000
 O   -1.113913776629    3.329293710379    0.000000000000
 H   -0.449333776629    4.051293710379    0.000000000000
NA   -0.612423776629    1.830413710379    1.855520000000
NA   -0.612423776629    1.830413710379   -1.855520000000
 O    1.583067363825   -4.731493641241    0.000000000000
 H    0.918480830867   -5.453500605411    0.000000000000
 C    2.848351667123   -5.526320062686    0.000000000000
 O    2.753222302943   -6.714889211272    0.000000000000
 C    4.045208212091   -4.626946523567    0.000000000000
 H    4.949612298752   -5.245874609963    0.000000000000
 H    4.046370082194   -3.984981498119   -0.893622768432
 H    4.046370082194   -3.984981498119    0.893622768432
