18

 C   -3.598995605255    3.293322674116    0.000000000000
 H   -4.503405605255    3.912252674116    0.000000000000
 H   -3.600165605255    2.651352674116    0.893620000000
 H   -3.600165605255    2.651352674116   -0.893620000000
 C   -2.402145605255    4.192692674116    0.000000000000
 O   -2.307015605255    5.381252674116    0.000000000000
 O   -1.136855605255    3.397862674116    0.000000000000
 H   -0.472275605255    4.119862674116    0.000000000000
NA   -0.635365605255    1.898982674116    1.855520000000
NA   -0.635365605255    1.898982674116   -1.855520000000
 O    1.623583914974   -4.852590262248    0.000000000000
 H    0.958997382016   -5.574597226419    0.000000000000
 C    2.888868218272   -5.647416683693    0.000000000000
 O    2.793738854092   -6.835985832279    0.000000000000
 C    4.085724763239   -4.748043144574    0.000000000000
 H    4.990128849901   -5.366971230970    0.000000000000
 H    4.086886633342   -4.106078119126   -0.893622768432
 H    4.086886633342   -4.106078119126    0.893622768432
