18

 C   -3.633408348196    3.396176119721    0.000000000000
 H   -4.537818348196    4.015106119721    0.000000000000
 H   -3.634578348196    2.754206119721    0.893620000000
 H   -3.634578348196    2.754206119721   -0.893620000000
 C   -2.436558348196    4.295546119721    0.000000000000
 O   -2.341428348196    5.484106119721    0.000000000000
 O   -1.171268348196    3.500716119721    0.000000000000
 H   -0.506688348196    4.222716119721    0.000000000000
NA   -0.669778348196    2.001836119721    1.855520000000
NA   -0.669778348196    2.001836119721   -1.855520000000
 O    1.684358741696   -5.034235193759    0.000000000000
 H    1.019772208739   -5.756242157929    0.000000000000
 C    2.949643044994   -5.829061615204    0.000000000000
 O    2.854513680815   -7.017630763790    0.000000000000
 C    4.146499589962   -4.929688076085    0.000000000000
 H    5.050903676623   -5.548616162481    0.000000000000
 H    4.147661460065   -4.287723050637   -0.893622768432
 H    4.147661460065   -4.287723050637    0.893622768432
