18

 C   -3.690762919763    3.567598529063    0.000000000000
 H   -4.595172919763    4.186528529063    0.000000000000
 H   -3.691932919763    2.925628529063    0.893620000000
 H   -3.691932919763    2.925628529063   -0.893620000000
 C   -2.493912919763    4.466968529063    0.000000000000
 O   -2.398782919763    5.655528529063    0.000000000000
 O   -1.228622919763    3.672138529063    0.000000000000
 H   -0.564042919763    4.394138529063    0.000000000000
NA   -0.727132919763    2.173258529063    1.855520000000
NA   -0.727132919763    2.173258529063   -1.855520000000
 O    1.785650119568   -5.336976746277    0.000000000000
 H    1.121063586610   -6.058983710448    0.000000000000
 C    3.050934422866   -6.131803167722    0.000000000000
 O    2.955805058686   -7.320372316308    0.000000000000
 C    4.247790967834   -5.232429628603    0.000000000000
 H    5.152195054495   -5.851357714999    0.000000000000
 H    4.248952837936   -4.590464603155   -0.893622768432
 H    4.248952837936   -4.590464603155    0.893622768432
