18

 C   -3.702233834076    3.601883010932    0.000000000000
 H   -4.606643834076    4.220813010932    0.000000000000
 H   -3.703403834076    2.959913010932    0.893620000000
 H   -3.703403834076    2.959913010932   -0.893620000000
 C   -2.505383834076    4.501253010932    0.000000000000
 O   -2.410253834076    5.689813010932    0.000000000000
 O   -1.240093834076    3.706423010932    0.000000000000
 H   -0.575513834076    4.428423010932    0.000000000000
NA   -0.738603834076    2.207543010932    1.855520000000
NA   -0.738603834076    2.207543010932   -1.855520000000
 O    1.805908395142   -5.397525056780    0.000000000000
 H    1.141321862184   -6.119532020951    0.000000000000
 C    3.071192698440   -6.192351478225    0.000000000000
 O    2.976063334260   -7.380920626812    0.000000000000
 C    4.268049243408   -5.292977939106    0.000000000000
 H    5.172453330069   -5.911906025503    0.000000000000
 H    4.269211113511   -4.651012913658   -0.893622768432
 H    4.269211113511   -4.651012913658    0.893622768432
