18

 C   -3.725175662703    3.670451974669    0.000000000000
 H   -4.629585662703    4.289381974669    0.000000000000
 H   -3.726345662703    3.028481974669    0.893620000000
 H   -3.726345662703    3.028481974669   -0.893620000000
 C   -2.528325662703    4.569821974669    0.000000000000
 O   -2.433195662703    5.758381974669    0.000000000000
 O   -1.263035662703    3.774991974669    0.000000000000
 H   -0.598455662703    4.496991974669    0.000000000000
NA   -0.761545662703    2.276111974669    1.855520000000
NA   -0.761545662703    2.276111974669   -1.855520000000
 O    1.846424946290   -5.518621677787    0.000000000000
 H    1.181838413333   -6.240628641958    0.000000000000
 C    3.111709249588   -6.313448099233    0.000000000000
 O    3.016579885409   -7.502017247819    0.000000000000
 C    4.308565794556   -5.414074560114    0.000000000000
 H    5.212969881217   -6.033002646510    0.000000000000
 H    4.309727664659   -4.772109534665   -0.893622768432
 H    4.309727664659   -4.772109534665    0.893622768432
