18

 C   -3.736646577017    3.704736456537    0.000000000000
 H   -4.641056577017    4.323666456537    0.000000000000
 H   -3.737816577017    3.062766456537    0.893620000000
 H   -3.737816577017    3.062766456537   -0.893620000000
 C   -2.539796577017    4.604106456537    0.000000000000
 O   -2.444666577017    5.792666456537    0.000000000000
 O   -1.274506577017    3.809276456537    0.000000000000
 H   -0.609926577017    4.531276456537    0.000000000000
NA   -0.773016577017    2.310396456537    1.855520000000
NA   -0.773016577017    2.310396456537   -1.855520000000
 O    1.866683221865   -5.579169988291    0.000000000000
 H    1.202096688907   -6.301176952462    0.000000000000
 C    3.131967525163   -6.373996409736    0.000000000000
 O    3.036838160983   -7.562565558322    0.000000000000
 C    4.328824070131   -5.474622870617    0.000000000000
 H    5.233228156792   -6.093550957014    0.000000000000
 H    4.329985940234   -4.832657845169   -0.893622768432
 H    4.329985940234   -4.832657845169    0.893622768432
