27

 C   -1.312068150704   -5.161368677528    0.000000000000
 H   -1.266918150704   -6.251728677528    0.000000000000
 C   -0.126098150704   -4.408118677528    0.000000000000
 H    0.844631849296   -4.907858677528    0.000000000000
 C   -2.555748150704   -4.507518677528    0.000000000000
 H   -3.481658150704   -5.086108677528    0.000000000000
 C   -0.182228150704   -3.003748677528    0.000000000000
 H    0.747101849296   -2.425438677528    0.000000000000
 C   -2.622338150704   -3.103668677528    0.000000000000
 H   -3.590838150704   -2.594738677528    0.000000000000
 C   -1.430368150704   -2.370248677528    0.000000000000
 O   -1.444228150704   -0.961298677528    0.000000000000
 H   -2.368398150704   -0.671668677528    0.000000000000
NA    0.424701849296    0.282691322472    0.000000000000
 O    1.340400909004    0.892195409455    0.000000000000
 H    2.264571241272    0.602571382387    0.000000000000
 C    1.326540878109    2.301147239698    0.000000000000
 C    0.078403445868    2.934639970705    0.000000000000
 H   -0.850921133493    2.356332689846    0.000000000000
 C    0.022278834851    4.339008927973    0.000000000000
 H   -0.948448189895    4.838746978885    0.000000000000
 C    1.208249173215    5.092259854371    0.000000000000
 H    1.163096300456    6.182625347260    0.000000000000
 C    2.451921630969    4.438403123716    0.000000000000
 H    3.377839345332    5.016995497610    0.000000000000
 C    2.518514268696    3.034561680745    0.000000000000
 H    3.487014173178    2.525622606377    0.000000000000
