27

 C   -1.645871058503   -5.383553285444    0.000000000000
 H   -1.600721058503   -6.473913285444    0.000000000000
 C   -0.459901058503   -4.630303285444    0.000000000000
 H    0.510828941497   -5.130043285444    0.000000000000
 C   -2.889551058503   -4.729703285444    0.000000000000
 H   -3.815461058503   -5.308293285444    0.000000000000
 C   -0.516031058503   -3.225933285444    0.000000000000
 H    0.413298941497   -2.647623285444    0.000000000000
 C   -2.956141058503   -3.325853285444    0.000000000000
 H   -3.924641058503   -2.816923285444    0.000000000000
 C   -1.764171058503   -2.592433285444    0.000000000000
 O   -1.778031058503   -1.183483285444    0.000000000000
 H   -2.702201058503   -0.893853285444    0.000000000000
NA    0.090898941497    0.060506714556    0.000000000000
 O    1.755806322784    1.168695963617    0.000000000000
 H    2.679976655053    0.879071936549    0.000000000000
 C    1.741946291890    2.577647793859    0.000000000000
 C    0.493808859649    3.211140524866    0.000000000000
 H   -0.435515719713    2.632833244007    0.000000000000
 C    0.437684248631    4.615509482135    0.000000000000
 H   -0.533042776114    5.115247533047    0.000000000000
 C    1.623654586996    5.368760408533    0.000000000000
 H    1.578501714237    6.459125901421    0.000000000000
 C    2.867327044750    4.714903677877    0.000000000000
 H    3.793244759113    5.293496051771    0.000000000000
 C    2.933919682477    3.311062234907    0.000000000000
 H    3.902419586959    2.802123160539    0.000000000000
