27

 C   -1.720049482458   -5.432927642759    0.000000000000
 H   -1.674899482458   -6.523287642759    0.000000000000
 C   -0.534079482458   -4.679677642759    0.000000000000
 H    0.436650517542   -5.179417642759    0.000000000000
 C   -2.963729482458   -4.779077642759    0.000000000000
 H   -3.889639482458   -5.357667642759    0.000000000000
 C   -0.590209482458   -3.275307642759    0.000000000000
 H    0.339120517542   -2.696997642759    0.000000000000
 C   -3.030319482458   -3.375227642759    0.000000000000
 H   -3.998819482458   -2.866297642759    0.000000000000
 C   -1.838349482458   -2.641807642759    0.000000000000
 O   -1.852209482458   -1.232857642759    0.000000000000
 H   -2.776379482458   -0.943227642759    0.000000000000
NA    0.016720517542    0.011132357241    0.000000000000
 O    1.848118636958    1.230140531208    0.000000000000
 H    2.772288969226    0.940516504140    0.000000000000
 C    1.834258606063    2.639092361451    0.000000000000
 C    0.586121173822    3.272585092458    0.000000000000
 H   -0.343203405539    2.694277811599    0.000000000000
 C    0.529996562805    4.676954049726    0.000000000000
 H   -0.440730461940    5.176692100638    0.000000000000
 C    1.715966901169    5.430204976124    0.000000000000
 H    1.670814028410    6.520570469012    0.000000000000
 C    2.959639358923    4.776348245469    0.000000000000
 H    3.885557073286    5.354940619363    0.000000000000
 C    3.026231996650    3.372506802498    0.000000000000
 H    3.994731901132    2.863567728130    0.000000000000
