27

 C   -1.868406330369   -5.531676357388    0.000000000000
 H   -1.823256330369   -6.622036357388    0.000000000000
 C   -0.682436330369   -4.778426357388    0.000000000000
 H    0.288293669631   -5.278166357388    0.000000000000
 C   -3.112086330369   -4.877826357388    0.000000000000
 H   -4.037996330369   -5.456416357388    0.000000000000
 C   -0.738566330369   -3.374056357388    0.000000000000
 H    0.190763669631   -2.795746357388    0.000000000000
 C   -3.178676330369   -3.473976357388    0.000000000000
 H   -4.147176330369   -2.965046357388    0.000000000000
 C   -1.986706330369   -2.740556357388    0.000000000000
 O   -2.000566330369   -1.331606357388    0.000000000000
 H   -2.924736330369   -1.041976357388    0.000000000000
NA   -0.131636330369   -0.087616357388    0.000000000000
 O    2.032743265305    1.353029666391    0.000000000000
 H    2.956913597573    1.063405639323    0.000000000000
 C    2.018883234410    2.761981496634    0.000000000000
 C    0.770745802169    3.395474227641    0.000000000000
 H   -0.158578777192    2.817166946782    0.000000000000
 C    0.714621191152    4.799843184909    0.000000000000
 H   -0.256105833593    5.299581235821    0.000000000000
 C    1.900591529516    5.553094111307    0.000000000000
 H    1.855438656757    6.643459604195    0.000000000000
 C    3.144263987270    4.899237380651    0.000000000000
 H    4.070181701633    5.477829754546    0.000000000000
 C    3.210856624997    3.495395937681    0.000000000000
 H    4.179356529479    2.986456863313    0.000000000000
