27

 C   -1.905495542347   -5.556363536046    0.000000000000
 H   -1.860345542347   -6.646723536046    0.000000000000
 C   -0.719525542347   -4.803113536046    0.000000000000
 H    0.251204457653   -5.302853536046    0.000000000000
 C   -3.149175542347   -4.902513536046    0.000000000000
 H   -4.075085542347   -5.481103536046    0.000000000000
 C   -0.775655542347   -3.398743536046    0.000000000000
 H    0.153674457653   -2.820433536046    0.000000000000
 C   -3.215765542347   -3.498663536046    0.000000000000
 H   -4.184265542347   -2.989733536046    0.000000000000
 C   -2.023795542347   -2.765243536046    0.000000000000
 O   -2.037655542347   -1.356293536046    0.000000000000
 H   -2.961825542347   -1.066663536046    0.000000000000
NA   -0.168725542347   -0.112303536046    0.000000000000
 O    2.078899422392    1.383751950187    0.000000000000
 H    3.003069754660    1.094127923119    0.000000000000
 C    2.065039391497    2.792703780429    0.000000000000
 C    0.816901959256    3.426196511436    0.000000000000
 H   -0.112422620105    2.847889230577    0.000000000000
 C    0.760777348238    4.830565468705    0.000000000000
 H   -0.209949676507    5.330303519617    0.000000000000
 C    1.946747686603    5.583816395103    0.000000000000
 H    1.901594813844    6.674181887991    0.000000000000
 C    3.190420144357    4.929959664447    0.000000000000
 H    4.116337858720    5.508552038342    0.000000000000
 C    3.257012782084    3.526118221477    0.000000000000
 H    4.225512686566    3.017179147109    0.000000000000
