27

 C   -2.016763178279   -5.630425072018    0.000000000000
 H   -1.971613178279   -6.720785072018    0.000000000000
 C   -0.830793178279   -4.877175072018    0.000000000000
 H    0.139936821721   -5.376915072018    0.000000000000
 C   -3.260443178279   -4.976575072018    0.000000000000
 H   -4.186353178279   -5.555165072018    0.000000000000
 C   -0.886923178279   -3.472805072018    0.000000000000
 H    0.042406821721   -2.894495072018    0.000000000000
 C   -3.327033178279   -3.572725072018    0.000000000000
 H   -4.295533178279   -3.063795072018    0.000000000000
 C   -2.135063178279   -2.839305072018    0.000000000000
 O   -2.148923178279   -1.430355072018    0.000000000000
 H   -3.073093178279   -1.140725072018    0.000000000000
NA   -0.279993178279   -0.186365072018    0.000000000000
 O    2.217367893652    1.475918801574    0.000000000000
 H    3.141538225920    1.186294774506    0.000000000000
 C    2.203507862757    2.884870631816    0.000000000000
 C    0.955370430516    3.518363362824    0.000000000000
 H    0.026045851155    2.940056081964    0.000000000000
 C    0.899245819499    4.922732320092    0.000000000000
 H   -0.071481205247    5.422470371004    0.000000000000
 C    2.085216157863    5.675983246490    0.000000000000
 H    2.040063285104    6.766348739378    0.000000000000
 C    3.328888615617    5.022126515834    0.000000000000
 H    4.254806329980    5.600718889729    0.000000000000
 C    3.395481253344    3.618285072864    0.000000000000
 H    4.363981157826    3.109345998496    0.000000000000
