27

 C   -2.090941602235   -5.679799429332    0.000000000000
 H   -2.045791602235   -6.770159429332    0.000000000000
 C   -0.904971602235   -4.926549429332    0.000000000000
 H    0.065758397765   -5.426289429332    0.000000000000
 C   -3.334621602235   -5.025949429332    0.000000000000
 H   -4.260531602235   -5.604539429332    0.000000000000
 C   -0.961101602235   -3.522179429332    0.000000000000
 H   -0.031771602235   -2.943869429332    0.000000000000
 C   -3.401211602235   -3.622099429332    0.000000000000
 H   -4.369711602235   -3.113169429332    0.000000000000
 C   -2.209241602235   -2.888679429332    0.000000000000
 O   -2.223101602235   -1.479729429332    0.000000000000
 H   -3.147271602235   -1.190099429332    0.000000000000
NA   -0.354171602235   -0.235739429332    0.000000000000
 O    2.309680207825    1.537363369165    0.000000000000
 H    3.233850540094    1.247739342097    0.000000000000
 C    2.295820176931    2.946315199408    0.000000000000
 C    1.047682744690    3.579807930415    0.000000000000
 H    0.118358165328    3.001500649556    0.000000000000
 C    0.991558133672    4.984176887683    0.000000000000
 H    0.020831108927    5.483914938595    0.000000000000
 C    2.177528472037    5.737427814081    0.000000000000
 H    2.132375599277    6.827793306970    0.000000000000
 C    3.421200929791    5.083571083426    0.000000000000
 H    4.347118644154    5.662163457320    0.000000000000
 C    3.487793567518    3.679729640456    0.000000000000
 H    4.456293472000    3.170790566087    0.000000000000
