27

 C   -2.165120026190   -5.729173786647    0.000000000000
 H   -2.119970026190   -6.819533786647    0.000000000000
 C   -0.979150026190   -4.975923786647    0.000000000000
 H   -0.008420026190   -5.475663786647    0.000000000000
 C   -3.408800026190   -5.075323786647    0.000000000000
 H   -4.334710026190   -5.653913786647    0.000000000000
 C   -1.035280026190   -3.571553786647    0.000000000000
 H   -0.105950026190   -2.993243786647    0.000000000000
 C   -3.475390026190   -3.671473786647    0.000000000000
 H   -4.443890026190   -3.162543786647    0.000000000000
 C   -2.283420026190   -2.938053786647    0.000000000000
 O   -2.297280026190   -1.529103786647    0.000000000000
 H   -3.221450026190   -1.239473786647    0.000000000000
NA   -0.428350026190   -0.285113786647    0.000000000000
 O    2.401992521999    1.598807936757    0.000000000000
 H    3.326162854267    1.309183909689    0.000000000000
 C    2.388132491104    3.007759766999    0.000000000000
 C    1.139995058863    3.641252498007    0.000000000000
 H    0.210670479502    3.062945217147    0.000000000000
 C    1.083870447846    5.045621455275    0.000000000000
 H    0.113143423100    5.545359506187    0.000000000000
 C    2.269840786210    5.798872381673    0.000000000000
 H    2.224687913451    6.889237874561    0.000000000000
 C    3.513513243964    5.145015651017    0.000000000000
 H    4.439430958327    5.723608024912    0.000000000000
 C    3.580105881691    3.741174208047    0.000000000000
 H    4.548605786173    3.232235133679    0.000000000000
