27

 C   -2.202209238168   -5.753860965304    0.000000000000
 H   -2.157059238168   -6.844220965304    0.000000000000
 C   -1.016239238168   -5.000610965304    0.000000000000
 H   -0.045509238168   -5.500350965304    0.000000000000
 C   -3.445889238168   -5.100010965304    0.000000000000
 H   -4.371799238168   -5.678600965304    0.000000000000
 C   -1.072369238168   -3.596240965304    0.000000000000
 H   -0.143039238168   -3.017930965304    0.000000000000
 C   -3.512479238168   -3.696160965304    0.000000000000
 H   -4.480979238168   -3.187230965304    0.000000000000
 C   -2.320509238168   -2.962740965304    0.000000000000
 O   -2.334369238168   -1.553790965304    0.000000000000
 H   -3.258539238168   -1.264160965304    0.000000000000
NA   -0.465439238168   -0.309800965304    0.000000000000
 O    2.448148679085    1.629530220553    0.000000000000
 H    3.372319011354    1.339906193485    0.000000000000
 C    2.434288648191    3.038482050795    0.000000000000
 C    1.186151215950    3.671974781802    0.000000000000
 H    0.256826636588    3.093667500943    0.000000000000
 C    1.130026604932    5.076343739070    0.000000000000
 H    0.159299580187    5.576081789982    0.000000000000
 C    2.315996943297    5.829594665468    0.000000000000
 H    2.270844070538    6.919960158357    0.000000000000
 C    3.559669401051    5.175737934813    0.000000000000
 H    4.485587115414    5.754330308707    0.000000000000
 C    3.626262038778    3.771896491843    0.000000000000
 H    4.594761943260    3.262957417475    0.000000000000
