27

 C   -2.239298450145   -5.778548143962    0.000000000000
 H   -2.194148450145   -6.868908143962    0.000000000000
 C   -1.053328450145   -5.025298143962    0.000000000000
 H   -0.082598450145   -5.525038143962    0.000000000000
 C   -3.482978450145   -5.124698143962    0.000000000000
 H   -4.408888450145   -5.703288143962    0.000000000000
 C   -1.109458450145   -3.620928143962    0.000000000000
 H   -0.180128450145   -3.042618143962    0.000000000000
 C   -3.549568450145   -3.720848143962    0.000000000000
 H   -4.518068450145   -3.211918143962    0.000000000000
 C   -2.357598450145   -2.987428143962    0.000000000000
 O   -2.371458450145   -1.578478143962    0.000000000000
 H   -3.295628450145   -1.288848143962    0.000000000000
NA   -0.502528450145   -0.334488143962    0.000000000000
 O    2.494304836172    1.660252504348    0.000000000000
 H    3.418475168440    1.370628477280    0.000000000000
 C    2.480444805277    3.069204334591    0.000000000000
 C    1.232307373037    3.702697065598    0.000000000000
 H    0.302982793675    3.124389784739    0.000000000000
 C    1.176182762019    5.107066022866    0.000000000000
 H    0.205455737274    5.606804073778    0.000000000000
 C    2.362153100384    5.860316949264    0.000000000000
 H    2.317000227624    6.950682442152    0.000000000000
 C    3.605825558138    5.206460218609    0.000000000000
 H    4.531743272501    5.785052592503    0.000000000000
 C    3.672418195865    3.802618775638    0.000000000000
 H    4.640918100347    3.293679701270    0.000000000000
