27

 C   -2.276387662123   -5.803235322619    0.000000000000
 H   -2.231237662123   -6.893595322619    0.000000000000
 C   -1.090417662123   -5.049985322619    0.000000000000
 H   -0.119687662123   -5.549725322619    0.000000000000
 C   -3.520067662123   -5.149385322619    0.000000000000
 H   -4.445977662123   -5.727975322619    0.000000000000
 C   -1.146547662123   -3.645615322619    0.000000000000
 H   -0.217217662123   -3.067305322619    0.000000000000
 C   -3.586657662123   -3.745535322619    0.000000000000
 H   -4.555157662123   -3.236605322619    0.000000000000
 C   -2.394687662123   -3.012115322619    0.000000000000
 O   -2.408547662123   -1.603165322619    0.000000000000
 H   -3.332717662123   -1.313535322619    0.000000000000
NA   -0.539617662123   -0.359175322619    0.000000000000
 O    2.540460993259    1.690974788144    0.000000000000
 H    3.464631325527    1.401350761076    0.000000000000
 C    2.526600962364    3.099926618386    0.000000000000
 C    1.278463530123    3.733419349394    0.000000000000
 H    0.349138950762    3.155112068534    0.000000000000
 C    1.222338919106    5.137788306662    0.000000000000
 H    0.251611894361    5.637526357574    0.000000000000
 C    2.408309257470    5.891039233060    0.000000000000
 H    2.363156384711    6.981404725948    0.000000000000
 C    3.651981715225    5.237182502404    0.000000000000
 H    4.577899429588    5.815774876299    0.000000000000
 C    3.718574352951    3.833341059434    0.000000000000
 H    4.687074257433    3.324401985066    0.000000000000
