27

 C   -2.424744510033   -5.901984037248    0.000000000000
 H   -2.379594510033   -6.992344037248    0.000000000000
 C   -1.238774510033   -5.148734037248    0.000000000000
 H   -0.268044510033   -5.648474037248    0.000000000000
 C   -3.668424510033   -5.248134037248    0.000000000000
 H   -4.594334510033   -5.826724037248    0.000000000000
 C   -1.294904510033   -3.744364037248    0.000000000000
 H   -0.365574510033   -3.166054037248    0.000000000000
 C   -3.735014510033   -3.844284037248    0.000000000000
 H   -4.703514510033   -3.335354037248    0.000000000000
 C   -2.543044510033   -3.110864037248    0.000000000000
 O   -2.556904510033   -1.701914037248    0.000000000000
 H   -3.481074510033   -1.412284037248    0.000000000000
NA   -0.687974510033   -0.457924037248    0.000000000000
 O    2.725085621606    1.813863923327    0.000000000000
 H    3.649255953874    1.524239896259    0.000000000000
 C    2.711225590711    3.222815753569    0.000000000000
 C    1.463088158470    3.856308484577    0.000000000000
 H    0.533763579109    3.278001203717    0.000000000000
 C    1.406963547453    5.260677441845    0.000000000000
 H    0.436236522708    5.760415492757    0.000000000000
 C    2.592933885817    6.013928368243    0.000000000000
 H    2.547781013058    7.104293861131    0.000000000000
 C    3.836606343571    5.360071637587    0.000000000000
 H    4.762524057935    5.938664011482    0.000000000000
 C    3.903198981298    3.956230194617    0.000000000000
 H    4.871698885780    3.447291120249    0.000000000000
