27

 C   -2.461833722011   -5.926671215906    0.000000000000
 H   -2.416683722011   -7.017031215906    0.000000000000
 C   -1.275863722011   -5.173421215906    0.000000000000
 H   -0.305133722011   -5.673161215906    0.000000000000
 C   -3.705513722011   -5.272821215906    0.000000000000
 H   -4.631423722011   -5.851411215906    0.000000000000
 C   -1.331993722011   -3.769051215906    0.000000000000
 H   -0.402663722011   -3.190741215906    0.000000000000
 C   -3.772103722011   -3.868971215906    0.000000000000
 H   -4.740603722011   -3.360041215906    0.000000000000
 C   -2.580133722011   -3.135551215906    0.000000000000
 O   -2.593993722011   -1.726601215906    0.000000000000
 H   -3.518163722011   -1.436971215906    0.000000000000
NA   -0.725063722011   -0.482611215906    0.000000000000
 O    2.771241778693    1.844586207123    0.000000000000
 H    3.695412110961    1.554962180055    0.000000000000
 C    2.757381747798    3.253538037365    0.000000000000
 C    1.509244315557    3.887030768372    0.000000000000
 H    0.579919736196    3.308723487513    0.000000000000
 C    1.453119704540    5.291399725640    0.000000000000
 H    0.482392679794    5.791137776552    0.000000000000
 C    2.639090042904    6.044650652038    0.000000000000
 H    2.593937170145    7.135016144927    0.000000000000
 C    3.882762500658    5.390793921383    0.000000000000
 H    4.808680215021    5.969386295277    0.000000000000
 C    3.949355138385    3.986952478413    0.000000000000
 H    4.917855042867    3.478013404045    0.000000000000
