27

 C   -2.758547417832   -6.124168645164    0.000000000000
 H   -2.713397417832   -7.214528645164    0.000000000000
 C   -1.572577417832   -5.370918645164    0.000000000000
 H   -0.601847417832   -5.870658645164    0.000000000000
 C   -4.002227417832   -5.470318645164    0.000000000000
 H   -4.928137417832   -6.048908645164    0.000000000000
 C   -1.628707417832   -3.966548645164    0.000000000000
 H   -0.699377417832   -3.388238645164    0.000000000000
 C   -4.068817417832   -4.066468645164    0.000000000000
 H   -5.037317417832   -3.557538645164    0.000000000000
 C   -2.876847417832   -3.333048645164    0.000000000000
 O   -2.890707417832   -1.924098645164    0.000000000000
 H   -3.814877417832   -1.634468645164    0.000000000000
NA   -1.021777417832   -0.680108645164    0.000000000000
 O    3.140491035386    2.090364477488    0.000000000000
 H    4.064661367655    1.800740450420    0.000000000000
 C    3.126631004492    3.499316307731    0.000000000000
 C    1.878493572251    4.132809038738    0.000000000000
 H    0.949168992890    3.554501757879    0.000000000000
 C    1.822368961233    5.537177996006    0.000000000000
 H    0.851641936488    6.036916046918    0.000000000000
 C    3.008339299598    6.290428922404    0.000000000000
 H    2.963186426839    7.380794415293    0.000000000000
 C    4.252011757352    5.636572191749    0.000000000000
 H    5.177929471715    6.215164565643    0.000000000000
 C    4.318604395079    4.232730748778    0.000000000000
 H    5.287104299561    3.723791674410    0.000000000000
