27

 C   -3.055261113653   -6.321666074423    0.000000000000
 H   -3.010111113653   -7.412026074423    0.000000000000
 C   -1.869291113653   -5.568416074423    0.000000000000
 H   -0.898561113653   -6.068156074423    0.000000000000
 C   -4.298941113653   -5.667816074423    0.000000000000
 H   -5.224851113653   -6.246406074423    0.000000000000
 C   -1.925421113653   -4.164046074423    0.000000000000
 H   -0.996091113653   -3.585736074423    0.000000000000
 C   -4.365531113653   -4.263966074423    0.000000000000
 H   -5.334031113653   -3.755036074423    0.000000000000
 C   -3.173561113653   -3.530546074423    0.000000000000
 O   -3.187421113653   -2.121596074423    0.000000000000
 H   -4.111591113653   -1.831966074423    0.000000000000
NA   -1.318491113653   -0.877606074423    0.000000000000
 O    3.509740292080    2.336142747854    0.000000000000
 H    4.433910624349    2.046518720786    0.000000000000
 C    3.495880261186    3.745094578097    0.000000000000
 C    2.247742828945    4.378587309104    0.000000000000
 H    1.318418249583    3.800280028245    0.000000000000
 C    2.191618217927    5.782956266372    0.000000000000
 H    1.220891193182    6.282694317284    0.000000000000
 C    3.377588556292    6.536207192770    0.000000000000
 H    3.332435683533    7.626572685658    0.000000000000
 C    4.621261014046    5.882350462114    0.000000000000
 H    5.547178728409    6.460942836009    0.000000000000
 C    4.687853651773    4.478509019144    0.000000000000
 H    5.656353556255    3.969569944776    0.000000000000
