27

 C   -3.092350325631   -6.346353253080    0.000000000000
 H   -3.047200325631   -7.436713253080    0.000000000000
 C   -1.906380325631   -5.593103253080    0.000000000000
 H   -0.935650325631   -6.092843253080    0.000000000000
 C   -4.336030325631   -5.692503253080    0.000000000000
 H   -5.261940325631   -6.271093253080    0.000000000000
 C   -1.962510325631   -4.188733253080    0.000000000000
 H   -1.033180325631   -3.610423253080    0.000000000000
 C   -4.402620325631   -4.288653253080    0.000000000000
 H   -5.371120325631   -3.779723253080    0.000000000000
 C   -3.210650325631   -3.555233253080    0.000000000000
 O   -3.224510325631   -2.146283253080    0.000000000000
 H   -4.148680325631   -1.856653253080    0.000000000000
NA   -1.355580325631   -0.902293253080    0.000000000000
 O    3.555896449167    2.366865031650    0.000000000000
 H    4.480066781435    2.077241004582    0.000000000000
 C    3.542036418272    3.775816861892    0.000000000000
 C    2.293898986032    4.409309592899    0.000000000000
 H    1.364574406670    3.831002312040    0.000000000000
 C    2.237774375014    5.813678550168    0.000000000000
 H    1.267047350269    6.313416601080    0.000000000000
 C    3.423744713379    6.566929476566    0.000000000000
 H    3.378591840619    7.657294969454    0.000000000000
 C    4.667417171133    5.913072745910    0.000000000000
 H    5.593334885496    6.491665119805    0.000000000000
 C    4.734009808860    4.509231302940    0.000000000000
 H    5.702509713342    4.000292228572    0.000000000000
