27

 C   -3.129439537608   -6.371040431738    0.000000000000
 H   -3.084289537608   -7.461400431738    0.000000000000
 C   -1.943469537608   -5.617790431738    0.000000000000
 H   -0.972739537608   -6.117530431738    0.000000000000
 C   -4.373119537608   -5.717190431738    0.000000000000
 H   -5.299029537608   -6.295780431738    0.000000000000
 C   -1.999599537608   -4.213420431738    0.000000000000
 H   -1.070269537608   -3.635110431738    0.000000000000
 C   -4.439709537608   -4.313340431738    0.000000000000
 H   -5.408209537608   -3.804410431738    0.000000000000
 C   -3.247739537608   -3.579920431738    0.000000000000
 O   -3.261599537608   -2.170970431738    0.000000000000
 H   -4.185769537608   -1.881340431738    0.000000000000
NA   -1.392669537608   -0.926980431738    0.000000000000
 O    3.602052606254    2.397587315446    0.000000000000
 H    4.526222938522    2.107963288378    0.000000000000
 C    3.588192575359    3.806539145688    0.000000000000
 C    2.340055143118    4.440031876695    0.000000000000
 H    1.410730563757    3.861724595836    0.000000000000
 C    2.283930532101    5.844400833963    0.000000000000
 H    1.313203507356    6.344138884875    0.000000000000
 C    3.469900870465    6.597651760361    0.000000000000
 H    3.424747997706    7.688017253250    0.000000000000
 C    4.713573328220    5.943795029706    0.000000000000
 H    5.639491042583    6.522387403600    0.000000000000
 C    4.780165965946    4.539953586736    0.000000000000
 H    5.748665870428    4.031014512368    0.000000000000
