27

 C   -3.389064021452   -6.543850682339    0.000000000000
 H   -3.343914021452   -7.634210682339    0.000000000000
 C   -2.203094021452   -5.790600682339    0.000000000000
 H   -1.232364021452   -6.290340682339    0.000000000000
 C   -4.632744021452   -5.890000682339    0.000000000000
 H   -5.558654021452   -6.468590682339    0.000000000000
 C   -2.259224021452   -4.386230682339    0.000000000000
 H   -1.329894021452   -3.807920682339    0.000000000000
 C   -4.699334021452   -4.486150682339    0.000000000000
 H   -5.667834021452   -3.977220682339    0.000000000000
 C   -3.507364021452   -3.752730682339    0.000000000000
 O   -3.521224021452   -2.343780682339    0.000000000000
 H   -4.445394021452   -2.054150682339    0.000000000000
NA   -1.652294021452   -1.099790682339    0.000000000000
 O    3.925145705861    2.612643302016    0.000000000000
 H    4.849316038129    2.323019274948    0.000000000000
 C    3.911285674966    4.021595132258    0.000000000000
 C    2.663148242725    4.655087863265    0.000000000000
 H    1.733823663364    4.076780582406    0.000000000000
 C    2.607023631708    6.059456820533    0.000000000000
 H    1.636296606963    6.559194871445    0.000000000000
 C    3.792993970072    6.812707746931    0.000000000000
 H    3.747841097313    7.903073239820    0.000000000000
 C    5.036666427827    6.158851016276    0.000000000000
 H    5.962584142190    6.737443390170    0.000000000000
 C    5.103259065554    4.755009573306    0.000000000000
 H    6.071758970035    4.246070498938    0.000000000000
