27

 C   -3.537420869362   -6.642599396968    0.000000000000
 H   -3.492270869362   -7.732959396968    0.000000000000
 C   -2.351450869362   -5.889349396968    0.000000000000
 H   -1.380720869362   -6.389089396968    0.000000000000
 C   -4.781100869362   -5.988749396968    0.000000000000
 H   -5.707010869362   -6.567339396968    0.000000000000
 C   -2.407580869362   -4.484979396968    0.000000000000
 H   -1.478250869362   -3.906669396968    0.000000000000
 C   -4.847690869362   -4.584899396968    0.000000000000
 H   -5.816190869362   -4.075969396968    0.000000000000
 C   -3.655720869362   -3.851479396968    0.000000000000
 O   -3.669580869362   -2.442529396968    0.000000000000
 H   -4.593750869362   -2.152899396968    0.000000000000
NA   -1.800650869362   -1.198539396968    0.000000000000
 O    4.109770334208    2.735532437198    0.000000000000
 H    5.033940666476    2.445908410130    0.000000000000
 C    4.095910303313    4.144484267441    0.000000000000
 C    2.847772871072    4.777976998448    0.000000000000
 H    1.918448291711    4.199669717589    0.000000000000
 C    2.791648260055    6.182345955716    0.000000000000
 H    1.820921235310    6.682084006628    0.000000000000
 C    3.977618598419    6.935596882114    0.000000000000
 H    3.932465725660    8.025962375003    0.000000000000
 C    5.221291056174    6.281740151459    0.000000000000
 H    6.147208770537    6.860332525353    0.000000000000
 C    5.287883693901    4.877898708489    0.000000000000
 H    6.256383598382    4.368959634120    0.000000000000
