27

 C   -3.574510081340   -6.667286575626    0.000000000000
 H   -3.529360081340   -7.757646575626    0.000000000000
 C   -2.388540081340   -5.914036575626    0.000000000000
 H   -1.417810081340   -6.413776575626    0.000000000000
 C   -4.818190081340   -6.013436575626    0.000000000000
 H   -5.744100081340   -6.592026575626    0.000000000000
 C   -2.444670081340   -4.509666575626    0.000000000000
 H   -1.515340081340   -3.931356575626    0.000000000000
 C   -4.884780081340   -4.609586575626    0.000000000000
 H   -5.853280081340   -4.100656575626    0.000000000000
 C   -3.692810081340   -3.876166575626    0.000000000000
 O   -3.706670081340   -2.467216575626    0.000000000000
 H   -4.630840081340   -2.177586575626    0.000000000000
NA   -1.837740081340   -1.223226575626    0.000000000000
 O    4.155926491295    2.766254720994    0.000000000000
 H    5.080096823563    2.476630693926    0.000000000000
 C    4.142066460400    4.175206551237    0.000000000000
 C    2.893929028159    4.808699282244    0.000000000000
 H    1.964604448798    4.230392001385    0.000000000000
 C    2.837804417142    6.213068239512    0.000000000000
 H    1.867077392396    6.712806290424    0.000000000000
 C    4.023774755506    6.966319165910    0.000000000000
 H    3.978621882747    8.056684658798    0.000000000000
 C    5.267447213260    6.312462435254    0.000000000000
 H    6.193364927623    6.891054809149    0.000000000000
 C    5.334039850987    4.908620992284    0.000000000000
 H    6.302539755469    4.399681917916    0.000000000000
