27

 C   -3.611599293318   -6.691973754283    0.000000000000
 H   -3.566449293318   -7.782333754283    0.000000000000
 C   -2.425629293318   -5.938723754283    0.000000000000
 H   -1.454899293318   -6.438463754283    0.000000000000
 C   -4.855279293318   -6.038123754283    0.000000000000
 H   -5.781189293318   -6.616713754283    0.000000000000
 C   -2.481759293318   -4.534353754283    0.000000000000
 H   -1.552429293318   -3.956043754283    0.000000000000
 C   -4.921869293318   -4.634273754283    0.000000000000
 H   -5.890369293318   -4.125343754283    0.000000000000
 C   -3.729899293318   -3.900853754283    0.000000000000
 O   -3.743759293318   -2.491903754283    0.000000000000
 H   -4.667929293318   -2.202273754283    0.000000000000
NA   -1.874829293318   -1.247913754283    0.000000000000
 O    4.202082648381    2.796977004790    0.000000000000
 H    5.126252980650    2.507352977722    0.000000000000
 C    4.188222617487    4.205928835032    0.000000000000
 C    2.940085185246    4.839421566040    0.000000000000
 H    2.010760605885    4.261114285180    0.000000000000
 C    2.883960574228    6.243790523308    0.000000000000
 H    1.913233549483    6.743528574220    0.000000000000
 C    4.069930912593    6.997041449706    0.000000000000
 H    4.024778039834    8.087406942594    0.000000000000
 C    5.313603370347    6.343184719050    0.000000000000
 H    6.239521084710    6.921777092945    0.000000000000
 C    5.380196008074    4.939343276080    0.000000000000
 H    6.348695912556    4.430404201712    0.000000000000
