27

 C   -3.648688505295   -6.716660932940    0.000000000000
 H   -3.603538505295   -7.807020932940    0.000000000000
 C   -2.462718505295   -5.963410932940    0.000000000000
 H   -1.491988505295   -6.463150932940    0.000000000000
 C   -4.892368505295   -6.062810932940    0.000000000000
 H   -5.818278505295   -6.641400932940    0.000000000000
 C   -2.518848505295   -4.559040932940    0.000000000000
 H   -1.589518505295   -3.980730932940    0.000000000000
 C   -4.958958505295   -4.658960932940    0.000000000000
 H   -5.927458505295   -4.150030932940    0.000000000000
 C   -3.766988505295   -3.925540932940    0.000000000000
 O   -3.780848505295   -2.516590932940    0.000000000000
 H   -4.705018505295   -2.226960932940    0.000000000000
NA   -1.911918505295   -1.272600932940    0.000000000000
 O    4.248238805468    2.827699288586    0.000000000000
 H    5.172409137737    2.538075261518    0.000000000000
 C    4.234378774574    4.236651118828    0.000000000000
 C    2.986241342333    4.870143849835    0.000000000000
 H    2.056916762971    4.291836568976    0.000000000000
 C    2.930116731315    6.274512807103    0.000000000000
 H    1.959389706570    6.774250858015    0.000000000000
 C    4.116087069680    7.027763733501    0.000000000000
 H    4.070934196920    8.118129226390    0.000000000000
 C    5.359759527434    6.373907002846    0.000000000000
 H    6.285677241797    6.952499376740    0.000000000000
 C    5.426352165161    4.970065559876    0.000000000000
 H    6.394852069643    4.461126485508    0.000000000000
