27

 C   -3.685777717273   -6.741348111598    0.000000000000
 H   -3.640627717273   -7.831708111598    0.000000000000
 C   -2.499807717273   -5.988098111598    0.000000000000
 H   -1.529077717273   -6.487838111598    0.000000000000
 C   -4.929457717273   -6.087498111598    0.000000000000
 H   -5.855367717273   -6.666088111598    0.000000000000
 C   -2.555937717273   -4.583728111598    0.000000000000
 H   -1.626607717273   -4.005418111598    0.000000000000
 C   -4.996047717273   -4.683648111598    0.000000000000
 H   -5.964547717273   -4.174718111598    0.000000000000
 C   -3.804077717273   -3.950228111598    0.000000000000
 O   -3.817937717273   -2.541278111598    0.000000000000
 H   -4.742107717273   -2.251648111598    0.000000000000
NA   -1.949007717273   -1.297288111598    0.000000000000
 O    4.294394962555    2.858421572381    0.000000000000
 H    5.218565294823    2.568797545313    0.000000000000
 C    4.280534931660    4.267373402624    0.000000000000
 C    3.032397499419    4.900866133631    0.000000000000
 H    2.103072920058    4.322558852772    0.000000000000
 C    2.976272888402    6.305235090899    0.000000000000
 H    2.005545863657    6.804973141811    0.000000000000
 C    4.162243226766    7.058486017297    0.000000000000
 H    4.117090354007    8.148851510185    0.000000000000
 C    5.405915684521    6.404629286642    0.000000000000
 H    6.331833398884    6.983221660536    0.000000000000
 C    5.472508322248    5.000787843671    0.000000000000
 H    6.441008226729    4.491848769303    0.000000000000
