27

 C   -3.759956141228   -6.790722468912    0.000000000000
 H   -3.714806141228   -7.881082468912    0.000000000000
 C   -2.573986141228   -6.037472468912    0.000000000000
 H   -1.603256141228   -6.537212468912    0.000000000000
 C   -5.003636141228   -6.136872468912    0.000000000000
 H   -5.929546141228   -6.715462468912    0.000000000000
 C   -2.630116141228   -4.633102468912    0.000000000000
 H   -1.700786141228   -4.054792468912    0.000000000000
 C   -5.070226141228   -4.733022468912    0.000000000000
 H   -6.038726141228   -4.224092468912    0.000000000000
 C   -3.878256141228   -3.999602468912    0.000000000000
 O   -3.892116141228   -2.590652468912    0.000000000000
 H   -4.816286141228   -2.301022468912    0.000000000000
NA   -2.023186141228   -1.346662468912    0.000000000000
 O    4.386707276728    2.919866139973    0.000000000000
 H    5.310877608997    2.630242112905    0.000000000000
 C    4.372847245834    4.328817970215    0.000000000000
 C    3.124709813593    4.962310701222    0.000000000000
 H    2.195385234231    4.384003420363    0.000000000000
 C    3.068585202575    6.366679658490    0.000000000000
 H    2.097858177830    6.866417709402    0.000000000000
 C    4.254555540940    7.119930584889    0.000000000000
 H    4.209402668181    8.210296077777    0.000000000000
 C    5.498227998694    6.466073854233    0.000000000000
 H    6.424145713057    7.044666228127    0.000000000000
 C    5.564820636421    5.062232411263    0.000000000000
 H    6.533320540903    4.553293336895    0.000000000000
