27

 C   -3.797045353206   -6.815409647570    0.000000000000
 H   -3.751895353206   -7.905769647570    0.000000000000
 C   -2.611075353206   -6.062159647570    0.000000000000
 H   -1.640345353206   -6.561899647570    0.000000000000
 C   -5.040725353206   -6.161559647570    0.000000000000
 H   -5.966635353206   -6.740149647570    0.000000000000
 C   -2.667205353206   -4.657789647570    0.000000000000
 H   -1.737875353206   -4.079479647570    0.000000000000
 C   -5.107315353206   -4.757709647570    0.000000000000
 H   -6.075815353206   -4.248779647570    0.000000000000
 C   -3.915345353206   -4.024289647570    0.000000000000
 O   -3.929205353206   -2.615339647570    0.000000000000
 H   -4.853375353206   -2.325709647570    0.000000000000
NA   -2.060275353206   -1.371349647570    0.000000000000
 O    4.432863433815    2.950588423768    0.000000000000
 H    5.357033766083    2.660964396700    0.000000000000
 C    4.419003402921    4.359540254011    0.000000000000
 C    3.170865970680    4.993032985018    0.000000000000
 H    2.241541391318    4.414725704159    0.000000000000
 C    3.114741359662    6.397401942286    0.000000000000
 H    2.144014334917    6.897139993198    0.000000000000
 C    4.300711698027    7.150652868684    0.000000000000
 H    4.255558825267    8.241018361573    0.000000000000
 C    5.544384155781    6.496796138029    0.000000000000
 H    6.470301870144    7.075388511923    0.000000000000
 C    5.610976793508    5.092954695059    0.000000000000
 H    6.579476697990    4.584015620690    0.000000000000
