27

 C   -3.871223777161   -6.864784004885    0.000000000000
 H   -3.826073777161   -7.955144004885    0.000000000000
 C   -2.685253777161   -6.111534004885    0.000000000000
 H   -1.714523777161   -6.611274004885    0.000000000000
 C   -5.114903777161   -6.210934004885    0.000000000000
 H   -6.040813777161   -6.789524004885    0.000000000000
 C   -2.741383777161   -4.707164004885    0.000000000000
 H   -1.812053777161   -4.128854004885    0.000000000000
 C   -5.181493777161   -4.807084004885    0.000000000000
 H   -6.149993777161   -4.298154004885    0.000000000000
 C   -3.989523777161   -4.073664004885    0.000000000000
 O   -4.003383777161   -2.664714004885    0.000000000000
 H   -4.927553777161   -2.375084004885    0.000000000000
NA   -2.134453777161   -1.420724004885    0.000000000000
 O    4.525175747989    3.012032991360    0.000000000000
 H    5.449346080257    2.722408964292    0.000000000000
 C    4.511315717094    4.420984821602    0.000000000000
 C    3.263178284853    5.054477552610    0.000000000000
 H    2.333853705492    4.476170271750    0.000000000000
 C    3.207053673836    6.458846509878    0.000000000000
 H    2.236326649090    6.958584560790    0.000000000000
 C    4.393024012200    7.212097436276    0.000000000000
 H    4.347871139441    8.302462929164    0.000000000000
 C    5.636696469954    6.558240705620    0.000000000000
 H    6.562614184317    7.136833079515    0.000000000000
 C    5.703289107681    5.154399262650    0.000000000000
 H    6.671789012163    4.645460188282    0.000000000000
