27

 C   -3.908312989139   -6.889471183542    0.000000000000
 H   -3.863162989139   -7.979831183542    0.000000000000
 C   -2.722342989139   -6.136221183542    0.000000000000
 H   -1.751612989139   -6.635961183542    0.000000000000
 C   -5.151992989139   -6.235621183542    0.000000000000
 H   -6.077902989139   -6.814211183542    0.000000000000
 C   -2.778472989139   -4.731851183542    0.000000000000
 H   -1.849142989139   -4.153541183542    0.000000000000
 C   -5.218582989139   -4.831771183542    0.000000000000
 H   -6.187082989139   -4.322841183542    0.000000000000
 C   -4.026612989139   -4.098351183542    0.000000000000
 O   -4.040472989139   -2.689401183542    0.000000000000
 H   -4.964642989139   -2.399771183542    0.000000000000
NA   -2.171542989139   -1.445411183542    0.000000000000
 O    4.571331905075    3.042755275156    0.000000000000
 H    5.495502237344    2.753131248088    0.000000000000
 C    4.557471874181    4.451707105398    0.000000000000
 C    3.309334441940    5.085199836405    0.000000000000
 H    2.380009862578    4.506892555546    0.000000000000
 C    3.253209830922    6.489568793673    0.000000000000
 H    2.282482806177    6.989306844585    0.000000000000
 C    4.439180169287    7.242819720071    0.000000000000
 H    4.394027296528    8.333185212960    0.000000000000
 C    5.682852627041    6.588962989416    0.000000000000
 H    6.608770341404    7.167555363310    0.000000000000
 C    5.749445264768    5.185121546446    0.000000000000
 H    6.717945169250    4.676182472078    0.000000000000
