27

 C   -3.982491413094   -6.938845540857    0.000000000000
 H   -3.937341413094   -8.029205540857    0.000000000000
 C   -2.796521413094   -6.185595540857    0.000000000000
 H   -1.825791413094   -6.685335540857    0.000000000000
 C   -5.226171413094   -6.284995540857    0.000000000000
 H   -6.152081413094   -6.863585540857    0.000000000000
 C   -2.852651413094   -4.781225540857    0.000000000000
 H   -1.923321413094   -4.202915540857    0.000000000000
 C   -5.292761413094   -4.881145540857    0.000000000000
 H   -6.261261413094   -4.372215540857    0.000000000000
 C   -4.100791413094   -4.147725540857    0.000000000000
 O   -4.114651413094   -2.738775540857    0.000000000000
 H   -5.038821413094   -2.449145540857    0.000000000000
NA   -2.245721413094   -1.494785540857    0.000000000000
 O    4.663644219249    3.104199842747    0.000000000000
 H    5.587814551517    2.814575815679    0.000000000000
 C    4.649784188354    4.513151672990    0.000000000000
 C    3.401646756113    5.146644403997    0.000000000000
 H    2.472322176752    4.568337123137    0.000000000000
 C    3.345522145096    6.551013361265    0.000000000000
 H    2.374795120351    7.050751412177    0.000000000000
 C    4.531492483460    7.304264287663    0.000000000000
 H    4.486339610701    8.394629780551    0.000000000000
 C    5.775164941215    6.650407557007    0.000000000000
 H    6.701082655578    7.228999930902    0.000000000000
 C    5.841757578941    5.246566114037    0.000000000000
 H    6.810257483423    4.737627039669    0.000000000000
