27

 C   -4.019580625072   -6.963532719514    0.000000000000
 H   -3.974430625072   -8.053892719514    0.000000000000
 C   -2.833610625072   -6.210282719514    0.000000000000
 H   -1.862880625072   -6.710022719514    0.000000000000
 C   -5.263260625072   -6.309682719514    0.000000000000
 H   -6.189170625072   -6.888272719514    0.000000000000
 C   -2.889740625072   -4.805912719514    0.000000000000
 H   -1.960410625072   -4.227602719514    0.000000000000
 C   -5.329850625072   -4.905832719514    0.000000000000
 H   -6.298350625072   -4.396902719514    0.000000000000
 C   -4.137880625072   -4.172412719514    0.000000000000
 O   -4.151740625072   -2.763462719514    0.000000000000
 H   -5.075910625072   -2.473832719514    0.000000000000
NA   -2.282810625072   -1.519472719514    0.000000000000
 O    4.709800376336    3.134922126543    0.000000000000
 H    5.633970708604    2.845298099475    0.000000000000
 C    4.695940345441    4.543873956785    0.000000000000
 C    3.447802913200    5.177366687792    0.000000000000
 H    2.518478333839    4.599059406933    0.000000000000
 C    3.391678302183    6.581735645060    0.000000000000
 H    2.420951277437    7.081473695973    0.000000000000
 C    4.577648640547    7.334986571459    0.000000000000
 H    4.532495767788    8.425352064347    0.000000000000
 C    5.821321098301    6.681129840803    0.000000000000
 H    6.747238812664    7.259722214697    0.000000000000
 C    5.887913736028    5.277288397833    0.000000000000
 H    6.856413640510    4.768349323465    0.000000000000
