27

 C   -4.056669837049   -6.988219898171    0.000000000000
 H   -4.011519837049   -8.078579898171    0.000000000000
 C   -2.870699837049   -6.234969898171    0.000000000000
 H   -1.899969837049   -6.734709898171    0.000000000000
 C   -5.300349837049   -6.334369898171    0.000000000000
 H   -6.226259837049   -6.912959898171    0.000000000000
 C   -2.926829837049   -4.830599898171    0.000000000000
 H   -1.997499837049   -4.252289898171    0.000000000000
 C   -5.366939837049   -4.930519898171    0.000000000000
 H   -6.335439837049   -4.421589898171    0.000000000000
 C   -4.174969837049   -4.197099898171    0.000000000000
 O   -4.188829837049   -2.788149898171    0.000000000000
 H   -5.112999837049   -2.498519898171    0.000000000000
NA   -2.319899837049   -1.544159898171    0.000000000000
 O    4.755956533422    3.165644410338    0.000000000000
 H    5.680126865691    2.876020383270    0.000000000000
 C    4.742096502528    4.574596240581    0.000000000000
 C    3.493959070287    5.208088971588    0.000000000000
 H    2.564634490925    4.629781690729    0.000000000000
 C    3.437834459269    6.612457928856    0.000000000000
 H    2.467107434524    7.112195979768    0.000000000000
 C    4.623804797634    7.365708855254    0.000000000000
 H    4.578651924875    8.456074348143    0.000000000000
 C    5.867477255388    6.711852124599    0.000000000000
 H    6.793394969751    7.290444498493    0.000000000000
 C    5.934069893115    5.308010681629    0.000000000000
 H    6.902569797597    4.799071607260    0.000000000000
