27

 C   -4.130848261005   -7.037594255486    0.000000000000
 H   -4.085698261005   -8.127954255486    0.000000000000
 C   -2.944878261005   -6.284344255486    0.000000000000
 H   -1.974148261005   -6.784084255486    0.000000000000
 C   -5.374528261005   -6.383744255486    0.000000000000
 H   -6.300438261005   -6.962334255486    0.000000000000
 C   -3.001008261005   -4.879974255486    0.000000000000
 H   -2.071678261005   -4.301664255486    0.000000000000
 C   -5.441118261005   -4.979894255486    0.000000000000
 H   -6.409618261005   -4.470964255486    0.000000000000
 C   -4.249148261005   -4.246474255486    0.000000000000
 O   -4.263008261005   -2.837524255486    0.000000000000
 H   -5.187178261005   -2.547894255486    0.000000000000
NA   -2.394078261005   -1.593534255486    0.000000000000
 O    4.848268847596    3.227088977930    0.000000000000
 H    5.772439179864    2.937464950862    0.000000000000
 C    4.834408816701    4.636040808172    0.000000000000
 C    3.586271384460    5.269533539180    0.000000000000
 H    2.656946805099    4.691226258320    0.000000000000
 C    3.530146773443    6.673902496448    0.000000000000
 H    2.559419748698    7.173640547360    0.000000000000
 C    4.716117111807    7.427153422846    0.000000000000
 H    4.670964239048    8.517518915734    0.000000000000
 C    5.959789569561    6.773296692190    0.000000000000
 H    6.885707283925    7.351889066085    0.000000000000
 C    6.026382207288    5.369455249220    0.000000000000
 H    6.994882111770    4.860516174852    0.000000000000
