27

 C   -4.242115896937   -7.111655791458    0.000000000000
 H   -4.196965896937   -8.202015791458    0.000000000000
 C   -3.056145896937   -6.358405791458    0.000000000000
 H   -2.085415896937   -6.858145791458    0.000000000000
 C   -5.485795896937   -6.457805791458    0.000000000000
 H   -6.411705896937   -7.036395791458    0.000000000000
 C   -3.112275896937   -4.954035791458    0.000000000000
 H   -2.182945896937   -4.375725791458    0.000000000000
 C   -5.552385896937   -5.053955791458    0.000000000000
 H   -6.520885896937   -4.545025791458    0.000000000000
 C   -4.360415896937   -4.320535791458    0.000000000000
 O   -4.374275896937   -2.911585791458    0.000000000000
 H   -5.298445896937   -2.621955791458    0.000000000000
NA   -2.505345896937   -1.667595791458    0.000000000000
 O    4.986737318856    3.319255829317    0.000000000000
 H    5.910907651124    3.029631802249    0.000000000000
 C    4.972877287961    4.728207659560    0.000000000000
 C    3.724739855720    5.361700390567    0.000000000000
 H    2.795415276359    4.783393109707    0.000000000000
 C    3.668615244703    6.766069347835    0.000000000000
 H    2.697888219958    7.265807398747    0.000000000000
 C    4.854585583067    7.519320274233    0.000000000000
 H    4.809432710308    8.609685767121    0.000000000000
 C    6.098258040822    6.865463543577    0.000000000000
 H    7.024175755185    7.444055917472    0.000000000000
 C    6.164850678549    5.461622100607    0.000000000000
 H    7.133350583030    4.952683026239    0.000000000000
