27

 C   -4.316294320893   -7.161030148773    0.000000000000
 H   -4.271144320893   -8.251390148773    0.000000000000
 C   -3.130324320893   -6.407780148773    0.000000000000
 H   -2.159594320893   -6.907520148773    0.000000000000
 C   -5.559974320893   -6.507180148773    0.000000000000
 H   -6.485884320893   -7.085770148773    0.000000000000
 C   -3.186454320893   -5.003410148773    0.000000000000
 H   -2.257124320893   -4.425100148773    0.000000000000
 C   -5.626564320893   -5.103330148773    0.000000000000
 H   -6.595064320893   -4.594400148773    0.000000000000
 C   -4.434594320893   -4.369910148773    0.000000000000
 O   -4.448454320893   -2.960960148773    0.000000000000
 H   -5.372624320893   -2.671330148773    0.000000000000
NA   -2.579524320893   -1.716970148773    0.000000000000
 O    5.079049633030    3.380700396909    0.000000000000
 H    6.003219965298    3.091076369841    0.000000000000
 C    5.065189602135    4.789652227151    0.000000000000
 C    3.817052169894    5.423144958158    0.000000000000
 H    2.887727590533    4.844837677299    0.000000000000
 C    3.760927558876    6.827513915426    0.000000000000
 H    2.790200534131    7.327251966338    0.000000000000
 C    4.946897897241    7.580764841824    0.000000000000
 H    4.901745024482    8.671130334713    0.000000000000
 C    6.190570354995    6.926908111169    0.000000000000
 H    7.116488069358    7.505500485063    0.000000000000
 C    6.257162992722    5.523066668199    0.000000000000
 H    7.225662897204    5.014127593831    0.000000000000
