27

 C   -4.390472744848   -7.210404506087    0.000000000000
 H   -4.345322744848   -8.300764506087    0.000000000000
 C   -3.204502744848   -6.457154506087    0.000000000000
 H   -2.233772744848   -6.956894506087    0.000000000000
 C   -5.634152744848   -6.556554506087    0.000000000000
 H   -6.560062744848   -7.135144506087    0.000000000000
 C   -3.260632744848   -5.052784506087    0.000000000000
 H   -2.331302744848   -4.474474506087    0.000000000000
 C   -5.700742744848   -5.152704506087    0.000000000000
 H   -6.669242744848   -4.643774506087    0.000000000000
 C   -4.508772744848   -4.419284506087    0.000000000000
 O   -4.522632744848   -3.010334506087    0.000000000000
 H   -5.446802744848   -2.720704506087    0.000000000000
NA   -2.653702744848   -1.766344506087    0.000000000000
 O    5.171361947203    3.442144964500    0.000000000000
 H    6.095532279471    3.152520937432    0.000000000000
 C    5.157501916308    4.851096794742    0.000000000000
 C    3.909364484067    5.484589525750    0.000000000000
 H    2.980039904706    4.906282244890    0.000000000000
 C    3.853239873050    6.888958483018    0.000000000000
 H    2.882512848305    7.388696533930    0.000000000000
 C    5.039210211414    7.642209409416    0.000000000000
 H    4.994057338655    8.732574902304    0.000000000000
 C    6.282882669169    6.988352678760    0.000000000000
 H    7.208800383532    7.566945052655    0.000000000000
 C    6.349475306896    5.584511235790    0.000000000000
 H    7.317975211377    5.075572161422    0.000000000000
