12

 C   -0.162165302759    2.097609901023    0.000000000000
 C    0.950176697241    1.078131901023    0.000000000000
 O    0.445845697241   -0.188321098977    0.000000000000
 C    1.460311697241   -1.222060098977    0.000000000000
 O    2.147816697241    1.322624901023    0.000000000000
 H    0.270404697241    3.104619901023    0.000000000000
 H   -0.794502302759    1.955037901023    0.888615000000
 H   -0.794502302759    1.955037901023   -0.888615000000
 H    0.906214697241   -2.167184098977    0.000000000000
 H    2.090106697241   -1.135761098977    0.896190000000
 H    2.090106697241   -1.135761098977   -0.896190000000
CS   -0.543714318311   -0.332442490940    0.000000000000
