12

 C   -0.098612339102    2.106865874831    0.000000000000
 C    1.013729660898    1.087387874831    0.000000000000
 O    0.509398660898   -0.179065125169    0.000000000000
 C    1.523864660898   -1.212804125169    0.000000000000
 O    2.211369660898    1.331880874831    0.000000000000
 H    0.333957660898    3.113875874831    0.000000000000
 H   -0.730949339102    1.964293874831    0.888615000000
 H   -0.730949339102    1.964293874831   -0.888615000000
 H    0.969767660898   -2.157928125169    0.000000000000
 H    2.153659660898   -1.126505125169    0.896190000000
 H    2.153659660898   -1.126505125169   -0.896190000000
CS   -0.579117356209   -0.337598656328    0.000000000000
