12

 C   -0.035059375444    2.116121848639    0.000000000000
 C    1.077282624556    1.096643848639    0.000000000000
 O    0.572951624556   -0.169809151361    0.000000000000
 C    1.587417624556   -1.203548151361    0.000000000000
 O    2.274922624556    1.341136848639    0.000000000000
 H    0.397510624556    3.123131848639    0.000000000000
 H   -0.667396375444    1.973549848639    0.888615000000
 H   -0.667396375444    1.973549848639   -0.888615000000
 H    1.033320624556   -2.148672151361    0.000000000000
 H    2.217212624556   -1.117249151361    0.896190000000
 H    2.217212624556   -1.117249151361   -0.896190000000
CS   -0.614520394106   -0.342754821716    0.000000000000
