12

 C    0.028493588213    2.125377822448    0.000000000000
 C    1.140835588213    1.105899822448    0.000000000000
 O    0.636504588213   -0.160553177552    0.000000000000
 C    1.650970588213   -1.194292177552    0.000000000000
 O    2.338475588213    1.350392822448    0.000000000000
 H    0.461063588213    3.132387822448    0.000000000000
 H   -0.603843411787    1.982805822448    0.888615000000
 H   -0.603843411787    1.982805822448   -0.888615000000
 H    1.096873588213   -2.139416177552    0.000000000000
 H    2.280765588213   -1.107993177552    0.896190000000
 H    2.280765588213   -1.107993177552   -0.896190000000
CS   -0.649923432004   -0.347910987104    0.000000000000
