12

 C    0.346258406500    2.171657691489    0.000000000000
 C    1.458600406500    1.152179691489    0.000000000000
 O    0.954269406500   -0.114273308511    0.000000000000
 C    1.968735406500   -1.148012308511    0.000000000000
 O    2.656240406500    1.396672691489    0.000000000000
 H    0.778828406500    3.178667691489    0.000000000000
 H   -0.286078593500    2.029085691489    0.888615000000
 H   -0.286078593500    2.029085691489   -0.888615000000
 H    1.414638406500   -2.093136308511    0.000000000000
 H    2.598530406500   -1.061713308511    0.896190000000
 H    2.598530406500   -1.061713308511   -0.896190000000
CS   -0.826938621493   -0.373691814044    0.000000000000
