12

 C    0.727576188445    2.227193534339    0.000000000000
 C    1.839918188445    1.207715534339    0.000000000000
 O    1.335587188445   -0.058737465661    0.000000000000
 C    2.350053188445   -1.092476465661    0.000000000000
 O    3.037558188445    1.452208534339    0.000000000000
 H    1.160146188445    3.234203534339    0.000000000000
 H    0.095239188445    2.084621534339    0.888615000000
 H    0.095239188445    2.084621534339   -0.888615000000
 H    1.795956188445   -2.037600465661    0.000000000000
 H    2.979848188445   -1.006177465661    0.896190000000
 H    2.979848188445   -1.006177465661   -0.896190000000
CS   -1.039356848879   -0.404628806372    0.000000000000
