12

 C    0.791129152102    2.236449508147    0.000000000000
 C    1.903471152102    1.216971508147    0.000000000000
 O    1.399140152102   -0.049481491853    0.000000000000
 C    2.413606152102   -1.083220491853    0.000000000000
 O    3.101111152102    1.461464508147    0.000000000000
 H    1.223699152102    3.243459508147    0.000000000000
 H    0.158792152102    2.093877508147    0.888615000000
 H    0.158792152102    2.093877508147   -0.888615000000
 H    1.859509152102   -2.028344491853    0.000000000000
 H    3.043401152102   -0.996921491853    0.896190000000
 H    3.043401152102   -0.996921491853   -0.896190000000
CS   -1.074759886777   -0.409784971760    0.000000000000
