12

 C    0.854682115760    2.245705481955    0.000000000000
 C    1.967024115760    1.226227481955    0.000000000000
 O    1.462693115760   -0.040225518045    0.000000000000
 C    2.477159115760   -1.073964518045    0.000000000000
 O    3.164664115760    1.470720481955    0.000000000000
 H    1.287252115760    3.252715481955    0.000000000000
 H    0.222345115760    2.103133481955    0.888615000000
 H    0.222345115760    2.103133481955   -0.888615000000
 H    1.923062115760   -2.019088518045    0.000000000000
 H    3.106954115760   -0.987665518045    0.896190000000
 H    3.106954115760   -0.987665518045   -0.896190000000
CS   -1.110162924675   -0.414941137148    0.000000000000
