12

 C    1.045341006732    2.273473403380    0.000000000000
 C    2.157683006732    1.253995403380    0.000000000000
 O    1.653352006732   -0.012457596620    0.000000000000
 C    2.667818006732   -1.046196596620    0.000000000000
 O    3.355323006732    1.498488403380    0.000000000000
 H    1.477911006732    3.280483403380    0.000000000000
 H    0.413004006732    2.130901403380    0.888615000000
 H    0.413004006732    2.130901403380   -0.888615000000
 H    2.113721006732   -1.991320596620    0.000000000000
 H    3.297613006732   -0.959897596620    0.896190000000
 H    3.297613006732   -0.959897596620   -0.896190000000
CS   -1.216372038368   -0.430409633312    0.000000000000
