12

 C    1.490211752334    2.338265220038    0.000000000000
 C    2.602553752334    1.318787220038    0.000000000000
 O    2.098222752334    0.052334220038    0.000000000000
 C    3.112688752334   -0.981404779962    0.000000000000
 O    3.800193752334    1.563280220038    0.000000000000
 H    1.922781752334    3.345275220038    0.000000000000
 H    0.857874752334    2.195693220038    0.888615000000
 H    0.857874752334    2.195693220038   -0.888615000000
 H    2.558591752334   -1.926528779962    0.000000000000
 H    3.742483752334   -0.895105779962    0.896190000000
 H    3.742483752334   -0.895105779962   -0.896190000000
CS   -1.464193303652   -0.466502791028    0.000000000000
