12

 C    1.553764715992    2.347521193847    0.000000000000
 C    2.666106715992    1.328043193847    0.000000000000
 O    2.161775715992    0.061590193847    0.000000000000
 C    3.176241715992   -0.972148806153    0.000000000000
 O    3.863746715992    1.572536193847    0.000000000000
 H    1.986334715992    3.354531193847    0.000000000000
 H    0.921427715992    2.204949193847    0.888615000000
 H    0.921427715992    2.204949193847   -0.888615000000
 H    2.622144715992   -1.917272806153    0.000000000000
 H    3.806036715992   -0.885849806153    0.896190000000
 H    3.806036715992   -0.885849806153   -0.896190000000
CS   -1.499596341550   -0.471658956416    0.000000000000
