12

 C    1.617317679649    2.356777167655    0.000000000000
 C    2.729659679649    1.337299167655    0.000000000000
 O    2.225328679649    0.070846167655    0.000000000000
 C    3.239794679649   -0.962892832345    0.000000000000
 O    3.927299679649    1.581792167655    0.000000000000
 H    2.049887679649    3.363787167655    0.000000000000
 H    0.984980679649    2.214205167655    0.888615000000
 H    0.984980679649    2.214205167655   -0.888615000000
 H    2.685697679649   -1.908016832345    0.000000000000
 H    3.869589679649   -0.876593832345    0.896190000000
 H    3.869589679649   -0.876593832345   -0.896190000000
CS   -1.534999379447   -0.476815121804    0.000000000000
