12

 C    1.680870643307    2.366033141463    0.000000000000
 C    2.793212643307    1.346555141463    0.000000000000
 O    2.288881643307    0.080102141463    0.000000000000
 C    3.303347643307   -0.953636858537    0.000000000000
 O    3.990852643307    1.591048141463    0.000000000000
 H    2.113440643307    3.373043141463    0.000000000000
 H    1.048533643307    2.223461141463    0.888615000000
 H    1.048533643307    2.223461141463   -0.888615000000
 H    2.749250643307   -1.898760858537    0.000000000000
 H    3.933142643307   -0.867337858537    0.896190000000
 H    3.933142643307   -0.867337858537   -0.896190000000
CS   -1.570402417345   -0.481971287192    0.000000000000
