12

 C    2.252847316224    2.449336905738    0.000000000000
 C    3.365189316224    1.429858905738    0.000000000000
 O    2.860858316224    0.163405905738    0.000000000000
 C    3.875324316224   -0.870333094262    0.000000000000
 O    4.562829316224    1.674351905738    0.000000000000
 H    2.685417316224    3.456346905738    0.000000000000
 H    1.620510316224    2.306764905738    0.888615000000
 H    1.620510316224    2.306764905738   -0.888615000000
 H    3.321227316224   -1.815457094262    0.000000000000
 H    4.505119316224   -0.784034094262    0.896190000000
 H    4.505119316224   -0.784034094262   -0.896190000000
CS   -1.889029758425   -0.528376775684    0.000000000000
