12

 C    2.379953243538    2.467848853355    0.000000000000
 C    3.492295243538    1.448370853355    0.000000000000
 O    2.987964243538    0.181917853355    0.000000000000
 C    4.002430243538   -0.851821146645    0.000000000000
 O    4.689935243538    1.692863853355    0.000000000000
 H    2.812523243538    3.474858853355    0.000000000000
 H    1.747616243538    2.325276853355    0.888615000000
 H    1.747616243538    2.325276853355   -0.888615000000
 H    3.448333243538   -1.796945146645    0.000000000000
 H    4.632225243538   -0.765522146645    0.896190000000
 H    4.632225243538   -0.765522146645   -0.896190000000
CS   -1.959835834220   -0.538689106460    0.000000000000
