12

 C    2.443506207196    2.477104827163    0.000000000000
 C    3.555848207196    1.457626827163    0.000000000000
 O    3.051517207196    0.191173827163    0.000000000000
 C    4.065983207196   -0.842565172837    0.000000000000
 O    4.753488207196    1.702119827163    0.000000000000
 H    2.876076207196    3.484114827163    0.000000000000
 H    1.811169207196    2.334532827163    0.888615000000
 H    1.811169207196    2.334532827163   -0.888615000000
 H    3.511886207196   -1.787689172837    0.000000000000
 H    4.695778207196   -0.756266172837    0.896190000000
 H    4.695778207196   -0.756266172837   -0.896190000000
CS   -1.995238872118   -0.543845271848    0.000000000000
