12

 C    2.951929916455    2.551152617629    0.000000000000
 C    4.064271916455    1.531674617629    0.000000000000
 O    3.559940916455    0.265221617629    0.000000000000
 C    4.574406916455   -0.768517382371    0.000000000000
 O    5.261911916455    1.776167617629    0.000000000000
 H    3.384499916455    3.558162617629    0.000000000000
 H    2.319592916455    2.408580617629    0.888615000000
 H    2.319592916455    2.408580617629   -0.888615000000
 H    4.020309916455   -1.713641382371    0.000000000000
 H    5.204201916455   -0.682218382371    0.896190000000
 H    5.204201916455   -0.682218382371   -0.896190000000
CS   -2.278463175299   -0.585094594952    0.000000000000
