12

 C    3.015482880113    2.560408591437    0.000000000000
 C    4.127824880113    1.540930591437    0.000000000000
 O    3.623493880113    0.274477591437    0.000000000000
 C    4.637959880113   -0.759261408563    0.000000000000
 O    5.325464880113    1.785423591437    0.000000000000
 H    3.448052880113    3.567418591437    0.000000000000
 H    2.383145880113    2.417836591437    0.888615000000
 H    2.383145880113    2.417836591437   -0.888615000000
 H    4.083862880113   -1.704385408563    0.000000000000
 H    5.267754880113   -0.672962408563    0.896190000000
 H    5.267754880113   -0.672962408563   -0.896190000000
CS   -2.313866213197   -0.590250760340    0.000000000000
