12

 C    3.142588807428    2.578920539054    0.000000000000
 C    4.254930807428    1.559442539054    0.000000000000
 O    3.750599807428    0.292989539054    0.000000000000
 C    4.765065807428   -0.740749460946    0.000000000000
 O    5.452570807428    1.803935539054    0.000000000000
 H    3.575158807428    3.585930539054    0.000000000000
 H    2.510251807428    2.436348539054    0.888615000000
 H    2.510251807428    2.436348539054   -0.888615000000
 H    4.210968807428   -1.685873460946    0.000000000000
 H    5.394860807428   -0.654450460946    0.896190000000
 H    5.394860807428   -0.654450460946   -0.896190000000
CS   -2.384672288993   -0.600563091116    0.000000000000
