12

 C    3.206141771085    2.588176512862    0.000000000000
 C    4.318483771085    1.568698512862    0.000000000000
 O    3.814152771085    0.302245512862    0.000000000000
 C    4.828618771085   -0.731493487138    0.000000000000
 O    5.516123771085    1.813191512862    0.000000000000
 H    3.638711771085    3.595186512862    0.000000000000
 H    2.573804771085    2.445604512862    0.888615000000
 H    2.573804771085    2.445604512862   -0.888615000000
 H    4.274521771085   -1.676617487138    0.000000000000
 H    5.458413771085   -0.645194487138    0.896190000000
 H    5.458413771085   -0.645194487138   -0.896190000000
CS   -2.420075326890   -0.605719256504    0.000000000000
