12

 C    3.269694734743    2.597432486671    0.000000000000
 C    4.382036734743    1.577954486671    0.000000000000
 O    3.877705734743    0.311501486671    0.000000000000
 C    4.892171734743   -0.722237513329    0.000000000000
 O    5.579676734743    1.822447486671    0.000000000000
 H    3.702264734743    3.604442486671    0.000000000000
 H    2.637357734743    2.454860486671    0.888615000000
 H    2.637357734743    2.454860486671   -0.888615000000
 H    4.338074734743   -1.667361513329    0.000000000000
 H    5.521966734743   -0.635938513329    0.896190000000
 H    5.521966734743   -0.635938513329   -0.896190000000
CS   -2.455478364788   -0.610875421892    0.000000000000
