12

 C    3.587459553030    2.643712355712    0.000000000000
 C    4.699801553030    1.624234355712    0.000000000000
 O    4.195470553030    0.357781355712    0.000000000000
 C    5.209936553030   -0.675957644288    0.000000000000
 O    5.897441553030    1.868727355712    0.000000000000
 H    4.020029553030    3.650722355712    0.000000000000
 H    2.955122553030    2.501140355712    0.888615000000
 H    2.955122553030    2.501140355712   -0.888615000000
 H    4.655839553030   -1.621081644288    0.000000000000
 H    5.839731553030   -0.589658644288    0.896190000000
 H    5.839731553030   -0.589658644288   -0.896190000000
CS   -2.632493554277   -0.636656248832    0.000000000000
