12

 C    3.651012516687    2.652968329520    0.000000000000
 C    4.763354516687    1.633490329520    0.000000000000
 O    4.259023516687    0.367037329520    0.000000000000
 C    5.273489516687   -0.666701670480    0.000000000000
 O    5.960994516687    1.877983329520    0.000000000000
 H    4.083582516687    3.659978329520    0.000000000000
 H    3.018675516687    2.510396329520    0.888615000000
 H    3.018675516687    2.510396329520   -0.888615000000
 H    4.719392516687   -1.611825670480    0.000000000000
 H    5.903284516687   -0.580402670480    0.896190000000
 H    5.903284516687   -0.580402670480   -0.896190000000
CS   -2.667896592174   -0.641812414220    0.000000000000
