12

 C    3.778118444002    2.671480277137    0.000000000000
 C    4.890460444002    1.652002277137    0.000000000000
 O    4.386129444002    0.385549277137    0.000000000000
 C    5.400595444002   -0.648189722863    0.000000000000
 O    6.088100444002    1.896495277137    0.000000000000
 H    4.210688444002    3.678490277137    0.000000000000
 H    3.145781444002    2.528908277137    0.888615000000
 H    3.145781444002    2.528908277137   -0.888615000000
 H    4.846498444002   -1.593313722863    0.000000000000
 H    6.030390444002   -0.561890722863    0.896190000000
 H    6.030390444002   -0.561890722863   -0.896190000000
CS   -2.738702667970   -0.652124744996    0.000000000000
