12

 C    4.032330298632    2.708504172370    0.000000000000
 C    5.144672298632    1.689026172370    0.000000000000
 O    4.640341298632    0.422573172370    0.000000000000
 C    5.654807298632   -0.611165827630    0.000000000000
 O    6.342312298632    1.933519172370    0.000000000000
 H    4.464900298632    3.715514172370    0.000000000000
 H    3.399993298632    2.565932172370    0.888615000000
 H    3.399993298632    2.565932172370   -0.888615000000
 H    5.100710298632   -1.556289827630    0.000000000000
 H    6.284602298632   -0.524866827630    0.896190000000
 H    6.284602298632   -0.524866827630   -0.896190000000
CS   -2.880314819561   -0.672749406548    0.000000000000
