12

 C    4.222989189604    2.736272093795    0.000000000000
 C    5.335331189604    1.716794093795    0.000000000000
 O    4.831000189604    0.450341093795    0.000000000000
 C    5.845466189604   -0.583397906205    0.000000000000
 O    6.532971189604    1.961287093795    0.000000000000
 H    4.655559189604    3.743282093795    0.000000000000
 H    3.590652189604    2.593700093795    0.888615000000
 H    3.590652189604    2.593700093795   -0.888615000000
 H    5.291369189604   -1.528521906205    0.000000000000
 H    6.475261189604   -0.497098906205    0.896190000000
 H    6.475261189604   -0.497098906205   -0.896190000000
CS   -2.986523933254   -0.688217902712    0.000000000000
