12

 C    4.540754007892    2.782551962837    0.000000000000
 C    5.653096007892    1.763073962837    0.000000000000
 O    5.148765007892    0.496620962837    0.000000000000
 C    6.163231007892   -0.537118037163    0.000000000000
 O    6.850736007892    2.007566962837    0.000000000000
 H    4.973324007892    3.789561962837    0.000000000000
 H    3.908417007892    2.639979962837    0.888615000000
 H    3.908417007892    2.639979962837   -0.888615000000
 H    5.609134007892   -1.482242037163    0.000000000000
 H    6.793026007892   -0.450819037163    0.896190000000
 H    6.793026007892   -0.450819037163   -0.896190000000
CS   -3.163539122743   -0.713998729652    0.000000000000
