12

 C    4.604306971549    2.791807936645    0.000000000000
 C    5.716648971549    1.772329936645    0.000000000000
 O    5.212317971549    0.505876936645    0.000000000000
 C    6.226783971549   -0.527862063355    0.000000000000
 O    6.914288971549    2.016822936645    0.000000000000
 H    5.036876971549    3.798817936645    0.000000000000
 H    3.971969971549    2.649235936645    0.888615000000
 H    3.971969971549    2.649235936645   -0.888615000000
 H    5.672686971549   -1.472986063355    0.000000000000
 H    6.856578971549   -0.441563063355    0.896190000000
 H    6.856578971549   -0.441563063355   -0.896190000000
CS   -3.198942160640   -0.719154895040    0.000000000000
