12

 C    4.667859935207    2.801063910453    0.000000000000
 C    5.780201935207    1.781585910453    0.000000000000
 O    5.275870935207    0.515132910453    0.000000000000
 C    6.290336935207   -0.518606089547    0.000000000000
 O    6.977841935207    2.026078910453    0.000000000000
 H    5.100429935207    3.808073910453    0.000000000000
 H    4.035522935207    2.658491910453    0.888615000000
 H    4.035522935207    2.658491910453   -0.888615000000
 H    5.736239935207   -1.463730089547    0.000000000000
 H    6.920131935207   -0.432307089547    0.896190000000
 H    6.920131935207   -0.432307089547   -0.896190000000
CS   -3.234345198538   -0.724311060428    0.000000000000
