12

 C    4.858518826179    2.828831831878    0.000000000000
 C    5.970860826179    1.809353831878    0.000000000000
 O    5.466529826179    0.542900831878    0.000000000000
 C    6.480995826179   -0.490838168122    0.000000000000
 O    7.168500826179    2.053846831878    0.000000000000
 H    5.291088826179    3.835841831878    0.000000000000
 H    4.226181826179    2.686259831878    0.888615000000
 H    4.226181826179    2.686259831878   -0.888615000000
 H    5.926898826179   -1.435962168122    0.000000000000
 H    7.110790826179   -0.404539168122    0.896190000000
 H    7.110790826179   -0.404539168122   -0.896190000000
CS   -3.340554312231   -0.739779556592    0.000000000000
