12

 C    4.922071789836    2.838087805686    0.000000000000
 C    6.034413789836    1.818609805686    0.000000000000
 O    5.530082789836    0.552156805686    0.000000000000
 C    6.544548789836   -0.481582194314    0.000000000000
 O    7.232053789836    2.063102805686    0.000000000000
 H    5.354641789836    3.845097805686    0.000000000000
 H    4.289734789836    2.695515805686    0.888615000000
 H    4.289734789836    2.695515805686   -0.888615000000
 H    5.990451789836   -1.426706194314    0.000000000000
 H    7.174343789836   -0.395283194314    0.896190000000
 H    7.174343789836   -0.395283194314   -0.896190000000
CS   -3.375957350129   -0.744935721980    0.000000000000
