12

 C    5.176283644466    2.875111700920    0.000000000000
 C    6.288625644466    1.855633700920    0.000000000000
 O    5.784294644466    0.589180700920    0.000000000000
 C    6.798760644466   -0.444558299080    0.000000000000
 O    7.486265644466    2.100126700920    0.000000000000
 H    5.608853644466    3.882121700920    0.000000000000
 H    4.543946644466    2.732539700920    0.888615000000
 H    4.543946644466    2.732539700920   -0.888615000000
 H    6.244663644466   -1.389682299080    0.000000000000
 H    7.428555644466   -0.358259299080    0.896190000000
 H    7.428555644466   -0.358259299080   -0.896190000000
CS   -3.517569501720   -0.765560383532    0.000000000000
