12

 C    5.430495499096    2.912135596153    0.000000000000
 C    6.542837499096    1.892657596153    0.000000000000
 O    6.038506499096    0.626204596153    0.000000000000
 C    7.052972499096   -0.407534403847    0.000000000000
 O    7.740477499096    2.137150596153    0.000000000000
 H    5.863065499096    3.919145596153    0.000000000000
 H    4.798158499096    2.769563596153    0.888615000000
 H    4.798158499096    2.769563596153   -0.888615000000
 H    6.498875499096   -1.352658403847    0.000000000000
 H    7.682767499096   -0.321235403847    0.896190000000
 H    7.682767499096   -0.321235403847   -0.896190000000
CS   -3.659181653311   -0.786185045084    0.000000000000
