13

 N   -1.111408612158    0.965341490701   -0.082292902150
 C    0.062330970925    1.692713682211   -0.082605381320
 H   -0.055385889138    2.778032141255   -0.082721228879
 C   -1.157184585238   -0.427870301166   -0.082677956719
 O   -2.208772753794   -1.061973615007   -0.082334589615
 N    0.103255955903   -1.011340357298   -0.082261053397
 H    0.113071753026   -2.029625469164   -0.082288357492
 C    1.364510245136   -0.375284870335   -0.082243958561
 O    2.398203173204   -1.044548704751   -0.082989624225
 C    1.283031453376    1.085262191055   -0.082743856008
 H    2.206431591678    1.662322449921   -0.083084532785
 H   -2.015145788106    1.424995612061   -0.082494553750
LI   -1.111154532790    0.965532930265    1.317707061705
