13

 N   -1.111409681770    0.965340684787   -0.088186559656
 C    0.062329901313    1.692712876297   -0.088499038826
 H   -0.055386958750    2.778031335341   -0.088614886385
 C   -1.157185654850   -0.427871107080   -0.088571614225
 O   -2.208773823406   -1.061974420921   -0.088228247121
 N    0.103254886291   -1.011341163212   -0.088154710903
 H    0.113070683414   -2.029626275078   -0.088182014998
 C    1.364509175524   -0.375285676249   -0.088137616067
 O    2.398202103592   -1.044549510665   -0.088883281731
 C    1.283030383764    1.085261385141   -0.088637513514
 H    2.206430522066    1.662321644007   -0.088978190291
 H   -2.015146857718    1.424994806147   -0.088388211256
LI   -1.111137453876    0.965545798606    1.411813401617
