13

 N   -1.111412890606    0.965338267046   -0.105867532175
 C    0.062326692477    1.692710458556   -0.106180011345
 H   -0.055390167586    2.778028917600   -0.106295858904
 C   -1.157188863686   -0.427873524821   -0.106252586744
 O   -2.208777032242   -1.061976838662   -0.105909219640
 N    0.103251677455   -1.011343580953   -0.105835683422
 H    0.113067474578   -2.029628692819   -0.105862987517
 C    1.364505966688   -0.375288093990   -0.105818588586
 O    2.398198894756   -1.044551928406   -0.106564254250
 C    1.283027174928    1.085258967400   -0.106318486033
 H    2.206427313230    1.662319226266   -0.106659162810
 H   -2.015150066554    1.424992388406   -0.106069183775
LI   -1.111086217133    0.965584403629    1.694132421353
