13

 N   -1.111413960218    0.965337461132   -0.111761189681
 C    0.062325622865    1.692709652642   -0.112073668851
 H   -0.055391237198    2.778028111686   -0.112189516410
 C   -1.157189933298   -0.427874330735   -0.112146244250
 O   -2.208778101854   -1.061977644576   -0.111802877146
 N    0.103250607843   -1.011344386867   -0.111729340928
 H    0.113066404966   -2.029629498733   -0.111756645023
 C    1.364504897076   -0.375288899904   -0.111712246092
 O    2.398197825144   -1.044552734320   -0.112457911756
 C    1.283026105316    1.085258161486   -0.112212143539
 H    2.206426243618    1.662318420352   -0.112552820316
 H   -2.015151136166    1.424991582492   -0.111962841281
LI   -1.111069138219    0.965597271970    1.788238761265
