13

 N   -1.111500598791    0.965272182118   -0.589147447695
 C    0.062238984292    1.692644373628   -0.589459926865
 H   -0.055477875771    2.777962832672   -0.589575774424
 C   -1.157276571871   -0.427939609749   -0.589532502264
 O   -2.208864740427   -1.062042923590   -0.589189135160
 N    0.103163969270   -1.011409665881   -0.589115598942
 H    0.112979766393   -2.029694777747   -0.589142903037
 C    1.364418258503   -0.375354178918   -0.589098504106
 O    2.398111186571   -1.044618013334   -0.589844169770
 C    1.282939466743    1.085192882472   -0.589598401553
 H    2.206339605045    1.662253141338   -0.589939078330
 H   -2.015237774739    1.424926303478   -0.589349099295
LI   -1.109685746163    0.966639607577    9.410852294128
