13

 N   -1.111417169054    0.965335043391   -0.129442162200
 C    0.062322414029    1.692707234901   -0.129754641370
 H   -0.055394446034    2.778025693945   -0.129870488929
 C   -1.157193142134   -0.427876748476   -0.129827216769
 O   -2.208781310690   -1.061980062317   -0.129483849665
 N    0.103247399007   -1.011346804608   -0.129410313447
 H    0.113063196130   -2.029631916474   -0.129437617542
 C    1.364501688240   -0.375291317645   -0.129393218611
 O    2.398194616308   -1.044555152061   -0.130138884275
 C    1.283022896480    1.085255743745   -0.129893116058
 H    2.206423034782    1.662316002611   -0.130233792835
 H   -2.015154345002    1.424989164751   -0.129643813800
LI   -1.111017901476    0.965635876992    2.070557781001
