13

 N   -1.111420377890    0.965332625650   -0.147123134720
 C    0.062319205193    1.692704817160   -0.147435613890
 H   -0.055397654870    2.778023276204   -0.147551461449
 C   -1.157196350970   -0.427879166217   -0.147508189289
 O   -2.208784519526   -1.061982480058   -0.147164822185
 N    0.103244190171   -1.011349222349   -0.147091285967
 H    0.113059987294   -2.029634334215   -0.147118590062
 C    1.364498479404   -0.375293735386   -0.147074191131
 O    2.398191407472   -1.044557569802   -0.147819856795
 C    1.283019687644    1.085253326004   -0.147574088578
 H    2.206419825946    1.662313584870   -0.147914765355
 H   -2.015157553838    1.424986747010   -0.147324786320
LI   -1.110966664733    0.965674482015    2.352876800736
