13

 N   -1.111425725950    0.965328596081   -0.176591422251
 C    0.062313857133    1.692700787591   -0.176903901421
 H   -0.055403002930    2.778019246635   -0.177019748980
 C   -1.157201699030   -0.427883195786   -0.176976476820
 O   -2.208789867586   -1.061986509627   -0.176633109716
 N    0.103238842111   -1.011353251918   -0.176559573498
 H    0.113054639234   -2.029638363784   -0.176586877593
 C    1.364493131344   -0.375297764955   -0.176542478662
 O    2.398186059412   -1.044561599371   -0.177288144326
 C    1.283014339584    1.085249296435   -0.177042376109
 H    2.206414477886    1.662309555301   -0.177383052886
 H   -2.015162901898    1.424982717441   -0.176793073851
LI   -1.110881270162    0.965738823719    2.823408500296
