13

 N   -1.111426795562    0.965327790167   -0.182485079758
 C    0.062312787521    1.692699981677   -0.182797558928
 H   -0.055404072542    2.778018440721   -0.182913406487
 C   -1.157202768642   -0.427884001700   -0.182870134327
 O   -2.208790937198   -1.061987315541   -0.182526767223
 N    0.103237772499   -1.011354057832   -0.182453231005
 H    0.113053569622   -2.029639169698   -0.182480535100
 C    1.364492061732   -0.375298570869   -0.182436136169
 O    2.398184989800   -1.044562405285   -0.183181801833
 C    1.283013269972    1.085248490521   -0.182936033616
 H    2.206413408274    1.662308749387   -0.183276710393
 H   -2.015163971510    1.424981911527   -0.182686731358
LI   -1.110864191248    0.965751692060    2.917514840208
