13

 N   -1.111427865174    0.965326984254   -0.188378737264
 C    0.062311717909    1.692699175764   -0.188691216434
 H   -0.055405142154    2.778017634808   -0.188807063993
 C   -1.157203838254   -0.427884807613   -0.188763791833
 O   -2.208792006810   -1.061988121454   -0.188420424729
 N    0.103236702887   -1.011354863745   -0.188346888511
 H    0.113052500010   -2.029639975611   -0.188374192606
 C    1.364490992120   -0.375299376782   -0.188329793675
 O    2.398183920188   -1.044563211198   -0.189075459339
 C    1.283012200360    1.085247684608   -0.188829691122
 H    2.206412338662    1.662307943474   -0.189170367899
 H   -2.015165041122    1.424981105614   -0.188580388864
LI   -1.110847112334    0.965764560400    3.011621180119
