13

 N   -1.111428934786    0.965326178340   -0.194272394770
 C    0.062310648297    1.692698369850   -0.194584873940
 H   -0.055406211766    2.778016828894   -0.194700721499
 C   -1.157204907866   -0.427885613527   -0.194657449339
 O   -2.208793076422   -1.061988927368   -0.194314082235
 N    0.103235633275   -1.011355669659   -0.194240546017
 H    0.113051430398   -2.029640781525   -0.194267850112
 C    1.364489922508   -0.375300182696   -0.194223451181
 O    2.398182850576   -1.044564017112   -0.194969116845
 C    1.283011130748    1.085246878694   -0.194723348628
 H    2.206411269050    1.662307137560   -0.195064025405
 H   -2.015166110734    1.424980299700   -0.194474046370
LI   -1.110830033419    0.965777428741    3.105727520031
