13

 N   -1.111431074010    0.965324566512   -0.206059709783
 C    0.062308509073    1.692696758022   -0.206372188953
 H   -0.055408350990    2.778015217066   -0.206488036512
 C   -1.157207047090   -0.427887225355   -0.206444764352
 O   -2.208795215646   -1.061990539196   -0.206101397248
 N    0.103233494051   -1.011357281487   -0.206027861030
 H    0.113049291174   -2.029642393353   -0.206055165125
 C    1.364487783284   -0.375301794524   -0.206010766194
 O    2.398180711352   -1.044565628940   -0.206756431858
 C    1.283008991524    1.085245266866   -0.206510663641
 H    2.206409129826    1.662305525732   -0.206851340418
 H   -2.015168249958    1.424978687872   -0.206261361383
LI   -1.110795875591    0.965803165423    3.293940199855
