13

 N   -1.111436422070    0.965320536944   -0.235527997315
 C    0.062303161013    1.692692728454   -0.235840476485
 H   -0.055413699050    2.778011187498   -0.235956324044
 C   -1.157212395150   -0.427891254923   -0.235913051884
 O   -2.208800563706   -1.061994568764   -0.235569684780
 N    0.103228145991   -1.011361311055   -0.235496148562
 H    0.113043943114   -2.029646422921   -0.235523452657
 C    1.364482435224   -0.375305824092   -0.235479053726
 O    2.398175363292   -1.044569658508   -0.236224719390
 C    1.283003643464    1.085241237298   -0.235978951173
 H    2.206403781766    1.662301496164   -0.236319627950
 H   -2.015173598018    1.424974658304   -0.235729648915
LI   -1.110710481019    0.965867507127    3.764471899414
