13

 N   -1.111439630907    0.965318119202   -0.253208969834
 C    0.062299952176    1.692690310712   -0.253521449004
 H   -0.055416907887    2.778008769756   -0.253637296563
 C   -1.157215603987   -0.427893672665   -0.253594024403
 O   -2.208803772543   -1.061996986506   -0.253250657299
 N    0.103224937154   -1.011363728797   -0.253177121081
 H    0.113040734277   -2.029648840663   -0.253204425176
 C    1.364479226387   -0.375308241834   -0.253160026245
 O    2.398172154455   -1.044572076250   -0.253905691909
 C    1.283000434627    1.085238819556   -0.253659923692
 H    2.206400572929    1.662299078422   -0.254000600469
 H   -2.015176806855    1.424972240562   -0.253410621434
LI   -1.110659244277    0.965906112150    4.046790919150
