13

 N   -1.111440700519    0.965317313289   -0.259102627340
 C    0.062298882564    1.692689504799   -0.259415106510
 H   -0.055417977499    2.778007963843   -0.259530954069
 C   -1.157216673599   -0.427894478578   -0.259487681909
 O   -2.208804842155   -1.061997792419   -0.259144314805
 N    0.103223867542   -1.011364534710   -0.259070778587
 H    0.113039664665   -2.029649646576   -0.259098082682
 C    1.364478156775   -0.375309047747   -0.259053683751
 O    2.398171084843   -1.044572882163   -0.259799349415
 C    1.282999365015    1.085238013643   -0.259553581198
 H    2.206399503317    1.662298272509   -0.259894257975
 H   -2.015177876467    1.424971434649   -0.259304278940
LI   -1.110642165362    0.965918980490    4.140897259062
