13

 N   -1.111444978967    0.965314089634   -0.282677257365
 C    0.062294604116    1.692686281144   -0.282989736535
 H   -0.055422255947    2.778004740188   -0.283105584094
 C   -1.157220952047   -0.427897702233   -0.283062311934
 O   -2.208809120603   -1.062001016074   -0.282718944830
 N    0.103219589094   -1.011367758365   -0.282645408612
 H    0.113035386217   -2.029652870231   -0.282672712707
 C    1.364473878327   -0.375312271402   -0.282628313776
 O    2.398166806395   -1.044576105818   -0.283373979440
 C    1.282995086567    1.085234789988   -0.283128211223
 H    2.206395224869    1.662295048854   -0.283468888000
 H   -2.015182154915    1.424968210994   -0.282878908965
LI   -1.110573849705    0.965970453854    4.517322618710
