13

 N   -1.111449257415    0.965310865978   -0.306251887391
 C    0.062290325668    1.692683057488   -0.306564366561
 H   -0.055426534395    2.778001516532   -0.306680214120
 C   -1.157225230495   -0.427900925889   -0.306636941960
 O   -2.208813399051   -1.062004239730   -0.306293574856
 N    0.103215310646   -1.011370982021   -0.306220038638
 H    0.113031107769   -2.029656093887   -0.306247342733
 C    1.364469599879   -0.375315495058   -0.306202943802
 O    2.398162527947   -1.044579329474   -0.306948609466
 C    1.282990808119    1.085231566332   -0.306702841249
 H    2.206390946421    1.662291825198   -0.307043518026
 H   -2.015186433363    1.424964987338   -0.306453538991
LI   -1.110505534048    0.966021927217    4.893747978357
