13

 N   -1.111455675087    0.965306030496   -0.341613832429
 C    0.062283907996    1.692678222006   -0.341926311599
 H   -0.055432952067    2.777996681050   -0.342042159158
 C   -1.157231648167   -0.427905761371   -0.341998886998
 O   -2.208819816723   -1.062009075212   -0.341655519894
 N    0.103208892974   -1.011375817503   -0.341581983676
 H    0.113024690097   -2.029660929369   -0.341609287771
 C    1.364463182207   -0.375320330540   -0.341564888840
 O    2.398156110275   -1.044584164956   -0.342310554504
 C    1.282984390447    1.085226730850   -0.342064786287
 H    2.206384528749    1.662286989716   -0.342405463064
 H   -2.015192851035    1.424960151856   -0.341815484029
LI   -1.110403060563    0.966099137262    5.458386017828
