13

 N   -1.111458883923    0.965303612755   -0.359294804948
 C    0.062280699160    1.692675804265   -0.359607284118
 H   -0.055436160903    2.777994263309   -0.359723131677
 C   -1.157234857003   -0.427908179112   -0.359679859517
 O   -2.208823025559   -1.062011492953   -0.359336492413
 N    0.103205684138   -1.011378235244   -0.359262956195
 H    0.113021481261   -2.029663347110   -0.359290260290
 C    1.364459973371   -0.375322748281   -0.359245861359
 O    2.398152901439   -1.044586582697   -0.359991527023
 C    1.282981181611    1.085224313109   -0.359745758806
 H    2.206381319913    1.662284571975   -0.360086435583
 H   -2.015196059871    1.424957734115   -0.359496456548
LI   -1.110351823820    0.966137742285    5.740705037564
