13

 N   -1.111463162371    0.965300389100   -0.382869434973
 C    0.062276420712    1.692672580610   -0.383181914143
 H   -0.055440439351    2.777991039654   -0.383297761702
 C   -1.157239135451   -0.427911402767   -0.383254489542
 O   -2.208827304007   -1.062014716608   -0.382911122438
 N    0.103201405690   -1.011381458899   -0.382837586220
 H    0.113017202813   -2.029666570765   -0.382864890315
 C    1.364455694923   -0.375325971936   -0.382820491384
 O    2.398148622991   -1.044589806352   -0.383566157048
 C    1.282976903163    1.085221089454   -0.383320388831
 H    2.206377041465    1.662281348320   -0.383661065608
 H   -2.015200338319    1.424954510460   -0.383071086573
LI   -1.110283508163    0.966189215648    6.117130397212
