13

 N   -1.111464231983    0.965299583186   -0.388763092480
 C    0.062275351100    1.692671774696   -0.389075571650
 H   -0.055441508963    2.777990233740   -0.389191419209
 C   -1.157240205063   -0.427912208681   -0.389148147049
 O   -2.208828373619   -1.062015522522   -0.388804779945
 N    0.103200336078   -1.011382264813   -0.388731243727
 H    0.113016133201   -2.029667376679   -0.388758547822
 C    1.364454625311   -0.375326777850   -0.388714148891
 O    2.398147553379   -1.044590612266   -0.389459814555
 C    1.282975833551    1.085220283540   -0.389214046338
 H    2.206375971853    1.662280542406   -0.389554723115
 H   -2.015201407931    1.424953704546   -0.388964744080
LI   -1.110266429248    0.966202083989    6.211236737124
