13

 N   -1.111465301595    0.965298777272   -0.394656749986
 C    0.062274281488    1.692670968782   -0.394969229156
 H   -0.055442578575    2.777989427826   -0.395085076715
 C   -1.157241274675   -0.427913014595   -0.395041804555
 O   -2.208829443231   -1.062016328436   -0.394698437451
 N    0.103199266466   -1.011383070727   -0.394624901233
 H    0.113015063589   -2.029668182593   -0.394652205328
 C    1.364453555699   -0.375327583764   -0.394607806397
 O    2.398146483767   -1.044591418180   -0.395353472061
 C    1.282974763939    1.085219477626   -0.395107703844
 H    2.206374902241    1.662279736492   -0.395448380621
 H   -2.015202477543    1.424952898632   -0.394858401586
LI   -1.110249350334    0.966214952330    6.305343077035
