13

 N   -1.111468510431    0.965296359531   -0.412337722505
 C    0.062271072652    1.692668551041   -0.412650201675
 H   -0.055445787411    2.777987010085   -0.412766049234
 C   -1.157244483511   -0.427915432336   -0.412722777074
 O   -2.208832652067   -1.062018746177   -0.412379409970
 N    0.103196057630   -1.011385488468   -0.412305873752
 H    0.113011854753   -2.029670600334   -0.412333177847
 C    1.364450346863   -0.375330001505   -0.412288778916
 O    2.398143274931   -1.044593835921   -0.413034444580
 C    1.282971555103    1.085217059885   -0.412788676363
 H    2.206371693405    1.662277318751   -0.413129353140
 H   -2.015205686379    1.424950480891   -0.412539374105
LI   -1.110198113591    0.966253557352    6.587662096771
