13

 N   -1.111479206551    0.965288300393   -0.471274297568
 C    0.062260376532    1.692660491903   -0.471586776738
 H   -0.055456483531    2.777978950947   -0.471702624297
 C   -1.157255179631   -0.427923491474   -0.471659352137
 O   -2.208843348187   -1.062026805315   -0.471315985033
 N    0.103185361510   -1.011393547606   -0.471242448815
 H    0.113001158633   -2.029678659472   -0.471269752910
 C    1.364439650743   -0.375338060643   -0.471225353979
 O    2.398132578811   -1.044601895059   -0.471971019643
 C    1.282960858983    1.085209000747   -0.471725251426
 H    2.206360997285    1.662269259613   -0.472065928203
 H   -2.015216382499    1.424942421753   -0.471475949168
LI   -1.110027324449    0.966382240760    7.528725495890
