13

 N   -1.111485624223    0.965283464911   -0.506636242606
 C    0.062253958860    1.692655656421   -0.506948721776
 H   -0.055462901203    2.777974115465   -0.507064569335
 C   -1.157261597303   -0.427928326956   -0.507021297175
 O   -2.208849765859   -1.062031640797   -0.506677930071
 N    0.103178943838   -1.011398383088   -0.506604393853
 H    0.112994740961   -2.029683494954   -0.506631697948
 C    1.364433233071   -0.375342896125   -0.506587299017
 O    2.398126161139   -1.044606730541   -0.507332964681
 C    1.282954441311    1.085204165265   -0.507087196464
 H    2.206354579613    1.662264424131   -0.507427873241
 H   -2.015222800171    1.424937586271   -0.506837894206
LI   -1.109924850963    0.966459450805    8.093363535361
