13

 N   -1.111486693835    0.965282658997   -0.512529900113
 C    0.062252889248    1.692654850507   -0.512842379283
 H   -0.055463970815    2.777973309551   -0.512958226842
 C   -1.157262666915   -0.427929132870   -0.512914954682
 O   -2.208850835471   -1.062032446711   -0.512571587578
 N    0.103177874226   -1.011399189002   -0.512498051360
 H    0.112993671349   -2.029684300868   -0.512525355455
 C    1.364432163459   -0.375343702039   -0.512480956524
 O    2.398125091527   -1.044607536455   -0.513226622188
 C    1.282953371699    1.085203359351   -0.512980853971
 H    2.206353510001    1.662263618217   -0.513321530748
 H   -2.015223869783    1.424936780357   -0.512731551713
LI   -1.109907772049    0.966472319146    8.187469875273
