13

 N   -1.111495250731    0.965276211687   -0.559679160164
 C    0.062244332352    1.692648403197   -0.559991639334
 H   -0.055472527711    2.777966862241   -0.560107486893
 C   -1.157271223811   -0.427935580180   -0.560064214733
 O   -2.208859392367   -1.062038894021   -0.559720847629
 N    0.103169317330   -1.011405636312   -0.559647311411
 H    0.112985114453   -2.029690748178   -0.559674615506
 C    1.364423606563   -0.375350149349   -0.559630216575
 O    2.398116534631   -1.044613983765   -0.560375882239
 C    1.282944814803    1.085196912041   -0.560130114022
 H    2.206344953105    1.662257170907   -0.560470790799
 H   -2.015232426679    1.424930333047   -0.559880811764
LI   -1.109771140735    0.966575265873    8.940320594568
