13

 N   -1.111499529179    0.965272988032   -0.583253790189
 C    0.062240053904    1.692645179542   -0.583566269359
 H   -0.055476806159    2.777963638586   -0.583682116918
 C   -1.157275502259   -0.427938803835   -0.583638844758
 O   -2.208863670815   -1.062042117676   -0.583295477654
 N    0.103165038882   -1.011408859967   -0.583221941436
 H    0.112980836005   -2.029693971833   -0.583249245531
 C    1.364419328115   -0.375353373004   -0.583204846600
 O    2.398112256183   -1.044617207420   -0.583950512264
 C    1.282940536355    1.085193688386   -0.583704744047
 H    2.206340674657    1.662253947252   -0.584045420824
 H   -2.015236705127    1.424927109392   -0.583455441789
LI   -1.109702825078    0.966626739236    9.316745954216
