13

 C    1.094824660558    1.681473042269    0.000000000000
 H    1.129344660558    2.782325042269    0.000000000000
 H    1.619407660558    1.312328042269    0.893619000000
 H    1.619407660558    1.312328042269   -0.893619000000
 C   -0.347955339442    1.204422042269    0.000000000000
 H   -0.887129339442    1.575575042269   -0.894766000000
 H   -0.887129339442    1.575575042269    0.894766000000
 O   -0.347390339442   -0.224084957731    0.000000000000
 C   -1.676977339442   -0.734491957731    0.000000000000
 H   -2.230360339442   -0.403712957731   -0.899133000000
 H   -2.230360339442   -0.403712957731    0.899133000000
 H   -1.603894339442   -1.829966957731    0.000000000000
 K    0.518832755508   -0.723742390154    0.000000000000
