13

 C    0.856230515072    1.819099640798    0.000000000000
 H    0.890750515072    2.919951640798    0.000000000000
 H    1.380813515072    1.449954640798    0.893619000000
 H    1.380813515072    1.449954640798   -0.893619000000
 C   -0.586549484928    1.342048640798    0.000000000000
 H   -1.125723484928    1.713201640798   -0.894766000000
 H   -1.125723484928    1.713201640798    0.894766000000
 O   -0.585984484928   -0.086458359202    0.000000000000
 C   -1.915571484928   -0.596865359202    0.000000000000
 H   -2.468954484928   -0.266086359202   -0.899133000000
 H   -2.468954484928   -0.266086359202    0.899133000000
 H   -1.842488484928   -1.692340359202    0.000000000000
 K    0.886594776486   -0.935875994321    0.000000000000
