13

 C    0.753975881291    1.878082468739    0.000000000000
 H    0.788495881291    2.978934468739    0.000000000000
 H    1.278558881291    1.508937468739    0.893619000000
 H    1.278558881291    1.508937468739   -0.893619000000
 C   -0.688804118709    1.401031468739    0.000000000000
 H   -1.227978118709    1.772184468739   -0.894766000000
 H   -1.227978118709    1.772184468739    0.894766000000
 O   -0.688239118709   -0.027475531261    0.000000000000
 C   -2.017826118709   -0.537882531261    0.000000000000
 H   -2.571209118709   -0.207103531261   -0.899133000000
 H   -2.571209118709   -0.207103531261    0.899133000000
 H   -1.944743118709   -1.633357531261    0.000000000000
 K    1.044207071191   -1.026790396107    0.000000000000
