13

 C    0.651721247511    1.937065296680    0.000000000000
 H    0.686241247511    3.037917296680    0.000000000000
 H    1.176304247511    1.567920296680    0.893619000000
 H    1.176304247511    1.567920296680   -0.893619000000
 C   -0.791058752489    1.460014296680    0.000000000000
 H   -1.330232752489    1.831167296680   -0.894766000000
 H   -1.330232752489    1.831167296680    0.894766000000
 O   -0.790493752489    0.031507296680    0.000000000000
 C   -2.120080752489   -0.478899703320    0.000000000000
 H   -2.673463752489   -0.148120703320   -0.899133000000
 H   -2.673463752489   -0.148120703320    0.899133000000
 H   -2.046997752489   -1.574374703320    0.000000000000
 K    1.201819365896   -1.117704797893    0.000000000000
