13

 C    0.617636369585    1.956726239327    0.000000000000
 H    0.652156369585    3.057578239327    0.000000000000
 H    1.142219369585    1.587581239327    0.893619000000
 H    1.142219369585    1.587581239327   -0.893619000000
 C   -0.825143630415    1.479675239327    0.000000000000
 H   -1.364317630415    1.850828239327   -0.894766000000
 H   -1.364317630415    1.850828239327    0.894766000000
 O   -0.824578630415    0.051168239327    0.000000000000
 C   -2.154165630415   -0.459238760673    0.000000000000
 H   -2.707548630415   -0.128459760673   -0.899133000000
 H   -2.707548630415   -0.128459760673    0.899133000000
 H   -2.081082630415   -1.554713760673    0.000000000000
 K    1.254356797464   -1.148009598488    0.000000000000
