13

 C    0.583551491658    1.976387181974    0.000000000000
 H    0.618071491658    3.077239181974    0.000000000000
 H    1.108134491658    1.607242181974    0.893619000000
 H    1.108134491658    1.607242181974   -0.893619000000
 C   -0.859228508342    1.499336181974    0.000000000000
 H   -1.398402508342    1.870489181974   -0.894766000000
 H   -1.398402508342    1.870489181974    0.894766000000
 O   -0.858663508342    0.070829181974    0.000000000000
 C   -2.188250508342   -0.439577818026    0.000000000000
 H   -2.741633508342   -0.108798818026   -0.899133000000
 H   -2.741633508342   -0.108798818026    0.899133000000
 H   -2.115167508342   -1.535052818026    0.000000000000
 K    1.306894229033   -1.178314399084    0.000000000000
