13

 C    0.549466613731    1.996048124621    0.000000000000
 H    0.583986613731    3.096900124621    0.000000000000
 H    1.074049613731    1.626903124621    0.893619000000
 H    1.074049613731    1.626903124621   -0.893619000000
 C   -0.893313386269    1.518997124621    0.000000000000
 H   -1.432487386269    1.890150124621   -0.894766000000
 H   -1.432487386269    1.890150124621    0.894766000000
 O   -0.892748386269    0.090490124621    0.000000000000
 C   -2.222335386269   -0.419916875379    0.000000000000
 H   -2.775718386269   -0.089137875379   -0.899133000000
 H   -2.775718386269   -0.089137875379    0.899133000000
 H   -2.149252386269   -1.515391875379    0.000000000000
 K    1.359431660601   -1.208619199679    0.000000000000
