13

 C    0.447211979951    2.055030952562    0.000000000000
 H    0.481731979951    3.155882952562    0.000000000000
 H    0.971794979951    1.685885952562    0.893619000000
 H    0.971794979951    1.685885952562   -0.893619000000
 C   -0.995568020049    1.577979952562    0.000000000000
 H   -1.534742020049    1.949132952562   -0.894766000000
 H   -1.534742020049    1.949132952562    0.894766000000
 O   -0.995003020049    0.149472952562    0.000000000000
 C   -2.324590020049   -0.360934047438    0.000000000000
 H   -2.877973020049   -0.030155047438   -0.899133000000
 H   -2.877973020049   -0.030155047438    0.899133000000
 H   -2.251507020049   -1.456409047438    0.000000000000
 K    1.517043955306   -1.299533601465    0.000000000000
