13

 C    0.276787590318    2.153335665797    0.000000000000
 H    0.311307590318    3.254187665797    0.000000000000
 H    0.801370590318    1.784190665797    0.893619000000
 H    0.801370590318    1.784190665797   -0.893619000000
 C   -1.165992409682    1.676284665797    0.000000000000
 H   -1.705166409682    2.047437665797   -0.894766000000
 H   -1.705166409682    2.047437665797    0.894766000000
 O   -1.165427409682    0.247777665797    0.000000000000
 C   -2.495014409682   -0.262629334203    0.000000000000
 H   -3.048397409682    0.068149665797   -0.899133000000
 H   -3.048397409682    0.068149665797    0.899133000000
 H   -2.421931409682   -1.358104334203    0.000000000000
 K    1.779731113147   -1.451057604442    0.000000000000
