13

 C    0.242702712391    2.172996608444    0.000000000000
 H    0.277222712391    3.273848608444    0.000000000000
 H    0.767285712391    1.803851608444    0.893619000000
 H    0.767285712391    1.803851608444   -0.893619000000
 C   -1.200077287609    1.695945608444    0.000000000000
 H   -1.739251287609    2.067098608444   -0.894766000000
 H   -1.739251287609    2.067098608444    0.894766000000
 O   -1.199512287609    0.267438608444    0.000000000000
 C   -2.529099287609   -0.242968391556    0.000000000000
 H   -3.082482287609    0.087810608444   -0.899133000000
 H   -3.082482287609    0.087810608444    0.899133000000
 H   -2.456016287609   -1.338443391556    0.000000000000
 K    1.832268544716   -1.481362405037    0.000000000000
