13

 C    0.208617834465    2.192657551091    0.000000000000
 H    0.243137834465    3.293509551091    0.000000000000
 H    0.733200834465    1.823512551091    0.893619000000
 H    0.733200834465    1.823512551091   -0.893619000000
 C   -1.234162165535    1.715606551091    0.000000000000
 H   -1.773336165535    2.086759551091   -0.894766000000
 H   -1.773336165535    2.086759551091    0.894766000000
 O   -1.233597165535    0.287099551091    0.000000000000
 C   -2.563184165535   -0.223307448909    0.000000000000
 H   -3.116567165535    0.107471551091   -0.899133000000
 H   -3.116567165535    0.107471551091    0.899133000000
 H   -2.490101165535   -1.318782448909    0.000000000000
 K    1.884805976284   -1.511667205632    0.000000000000
