13

 C    0.140448078611    2.231979436384    0.000000000000
 H    0.174968078611    3.332831436384    0.000000000000
 H    0.665031078611    1.862834436384    0.893619000000
 H    0.665031078611    1.862834436384   -0.893619000000
 C   -1.302331921389    1.754928436384    0.000000000000
 H   -1.841505921389    2.126081436384   -0.894766000000
 H   -1.841505921389    2.126081436384    0.894766000000
 O   -1.301766921389    0.326421436384    0.000000000000
 C   -2.631353921389   -0.183985563616    0.000000000000
 H   -3.184736921389    0.146793436384   -0.899133000000
 H   -3.184736921389    0.146793436384    0.899133000000
 H   -2.558270921389   -1.279460563616    0.000000000000
 K    1.989880839421   -1.572276806823    0.000000000000
