13

 C    0.038193444831    2.290962264325    0.000000000000
 H    0.072713444831    3.391814264325    0.000000000000
 H    0.562776444831    1.921817264325    0.893619000000
 H    0.562776444831    1.921817264325   -0.893619000000
 C   -1.404586555169    1.813911264325    0.000000000000
 H   -1.943760555169    2.185064264325   -0.894766000000
 H   -1.943760555169    2.185064264325    0.894766000000
 O   -1.404021555169    0.385404264325    0.000000000000
 C   -2.733608555169   -0.125002735675    0.000000000000
 H   -3.286991555169    0.205776264325   -0.899133000000
 H   -3.286991555169    0.205776264325    0.899133000000
 H   -2.660525555169   -1.220477735675    0.000000000000
 K    2.147493134125   -1.663191208609    0.000000000000
