13

 C   -0.029976311022    2.330284149619    0.000000000000
 H    0.004543688978    3.431136149619    0.000000000000
 H    0.494606688978    1.961139149619    0.893619000000
 H    0.494606688978    1.961139149619   -0.893619000000
 C   -1.472756311022    1.853233149619    0.000000000000
 H   -2.011930311022    2.224386149619   -0.894766000000
 H   -2.011930311022    2.224386149619    0.894766000000
 O   -1.472191311022    0.424726149619    0.000000000000
 C   -2.801778311022   -0.085680850381    0.000000000000
 H   -3.355161311022    0.245098149619   -0.899133000000
 H   -3.355161311022    0.245098149619    0.899133000000
 H   -2.728695311022   -1.181155850381    0.000000000000
 K    2.252567997262   -1.723800809799    0.000000000000
