13

 C   -0.166315822729    2.408927920207    0.000000000000
 H   -0.131795822729    3.509779920207    0.000000000000
 H    0.358267177271    2.039782920207    0.893619000000
 H    0.358267177271    2.039782920207   -0.893619000000
 C   -1.609095822729    1.931876920207    0.000000000000
 H   -2.148269822729    2.303029920207   -0.894766000000
 H   -2.148269822729    2.303029920207    0.894766000000
 O   -1.608530822729    0.503369920207    0.000000000000
 C   -2.938117822729   -0.007037079793    0.000000000000
 H   -3.491500822729    0.323741920207   -0.899133000000
 H   -3.491500822729    0.323741920207    0.899133000000
 H   -2.865034822729   -1.102512079793    0.000000000000
 K    2.462717723535   -1.845020012181    0.000000000000
