13

 C   -0.370825090289    2.526893576089    0.000000000000
 H   -0.336305090289    3.627745576089    0.000000000000
 H    0.153757909711    2.157748576089    0.893619000000
 H    0.153757909711    2.157748576089   -0.893619000000
 C   -1.813605090289    2.049842576089    0.000000000000
 H   -2.352779090289    2.420995576089   -0.894766000000
 H   -2.352779090289    2.420995576089    0.894766000000
 O   -1.813040090289    0.621335576089    0.000000000000
 C   -3.142627090289    0.110928576089    0.000000000000
 H   -3.696010090289    0.441707576089   -0.899133000000
 H   -3.696010090289    0.441707576089    0.899133000000
 H   -3.069544090289   -0.984546423911    0.000000000000
 K    2.777942312945   -2.026848815753    0.000000000000
