13

 C   -0.473079724069    2.585876404030    0.000000000000
 H   -0.438559724069    3.686728404030    0.000000000000
 H    0.051503275931    2.216731404030    0.893619000000
 H    0.051503275931    2.216731404030   -0.893619000000
 C   -1.915859724069    2.108825404030    0.000000000000
 H   -2.455033724069    2.479978404030   -0.894766000000
 H   -2.455033724069    2.479978404030    0.894766000000
 O   -1.915294724069    0.680318404030    0.000000000000
 C   -3.244881724069    0.169911404030    0.000000000000
 H   -3.798264724069    0.500690404030   -0.899133000000
 H   -3.798264724069    0.500690404030    0.899133000000
 H   -3.171798724069   -0.925563595970    0.000000000000
 K    2.935554607650   -2.117763217539    0.000000000000
