13

 C   -0.541249479923    2.625198289324    0.000000000000
 H   -0.506729479923    3.726050289324    0.000000000000
 H   -0.016666479923    2.256053289324    0.893619000000
 H   -0.016666479923    2.256053289324   -0.893619000000
 C   -1.984029479923    2.148147289324    0.000000000000
 H   -2.523203479923    2.519300289324   -0.894766000000
 H   -2.523203479923    2.519300289324    0.894766000000
 O   -1.983464479923    0.719640289324    0.000000000000
 C   -3.313051479923    0.209233289324    0.000000000000
 H   -3.866434479923    0.540012289324   -0.899133000000
 H   -3.866434479923    0.540012289324    0.899133000000
 H   -3.239968479923   -0.886241710676    0.000000000000
 K    3.040629470787   -2.178372818729    0.000000000000
