13

 C   -0.575334357849    2.644859231971    0.000000000000
 H   -0.540814357849    3.745711231971    0.000000000000
 H   -0.050751357849    2.275714231971    0.893619000000
 H   -0.050751357849    2.275714231971   -0.893619000000
 C   -2.018114357849    2.167808231971    0.000000000000
 H   -2.557288357849    2.538961231971   -0.894766000000
 H   -2.557288357849    2.538961231971    0.894766000000
 O   -2.017549357849    0.739301231971    0.000000000000
 C   -3.347136357849    0.228894231971    0.000000000000
 H   -3.900519357849    0.559673231971   -0.899133000000
 H   -3.900519357849    0.559673231971    0.899133000000
 H   -3.274053357849   -0.866580768029    0.000000000000
 K    3.093166902355   -2.208677619325    0.000000000000
