13

 C   -0.609419235776    2.664520174618    0.000000000000
 H   -0.574899235776    3.765372174618    0.000000000000
 H   -0.084836235776    2.295375174618    0.893619000000
 H   -0.084836235776    2.295375174618   -0.893619000000
 C   -2.052199235776    2.187469174618    0.000000000000
 H   -2.591373235776    2.558622174618   -0.894766000000
 H   -2.591373235776    2.558622174618    0.894766000000
 O   -2.051634235776    0.758962174618    0.000000000000
 C   -3.381221235776    0.248555174618    0.000000000000
 H   -3.934604235776    0.579334174618   -0.899133000000
 H   -3.934604235776    0.579334174618    0.899133000000
 H   -3.308138235776   -0.846919825382    0.000000000000
 K    3.145704333923   -2.238982419920    0.000000000000
