13

 C   -0.779843625409    2.762824887853    0.000000000000
 H   -0.745323625409    3.863676887853    0.000000000000
 H   -0.255260625409    2.393679887853    0.893619000000
 H   -0.255260625409    2.393679887853   -0.893619000000
 C   -2.222623625409    2.285773887853    0.000000000000
 H   -2.761797625409    2.656926887853   -0.894766000000
 H   -2.761797625409    2.656926887853    0.894766000000
 O   -2.222058625409    0.857266887853    0.000000000000
 C   -3.551645625409    0.346859887853    0.000000000000
 H   -4.105028625409    0.677638887853   -0.899133000000
 H   -4.105028625409    0.677638887853    0.899133000000
 H   -3.478562625409   -0.748615112147    0.000000000000
 K    3.408391491765   -2.390506422896    0.000000000000
