13

 C   -0.848013381263    2.802146773147    0.000000000000
 H   -0.813493381263    3.902998773147    0.000000000000
 H   -0.323430381263    2.433001773147    0.893619000000
 H   -0.323430381263    2.433001773147   -0.893619000000
 C   -2.290793381263    2.325095773147    0.000000000000
 H   -2.829967381263    2.696248773147   -0.894766000000
 H   -2.829967381263    2.696248773147    0.894766000000
 O   -2.290228381263    0.896588773147    0.000000000000
 C   -3.619815381263    0.386181773147    0.000000000000
 H   -4.173198381263    0.716960773147   -0.899133000000
 H   -4.173198381263    0.716960773147    0.899133000000
 H   -3.546732381263   -0.709293226853    0.000000000000
 K    3.513466354901   -2.451116024087    0.000000000000
