13

 C   -0.916183137116    2.841468658441    0.000000000000
 H   -0.881663137116    3.942320658441    0.000000000000
 H   -0.391600137116    2.472323658441    0.893619000000
 H   -0.391600137116    2.472323658441   -0.893619000000
 C   -2.358963137116    2.364417658441    0.000000000000
 H   -2.898137137116    2.735570658441   -0.894766000000
 H   -2.898137137116    2.735570658441    0.894766000000
 O   -2.358398137116    0.935910658441    0.000000000000
 C   -3.687985137116    0.425503658441    0.000000000000
 H   -4.241368137116    0.756282658441   -0.899133000000
 H   -4.241368137116    0.756282658441    0.899133000000
 H   -3.614902137116   -0.669971341559    0.000000000000
 K    3.618541218038   -2.511725625278    0.000000000000
