13

 C   -0.950268015043    2.861129601088    0.000000000000
 H   -0.915748015043    3.961981601088    0.000000000000
 H   -0.425685015043    2.491984601088    0.893619000000
 H   -0.425685015043    2.491984601088   -0.893619000000
 C   -2.393048015043    2.384078601088    0.000000000000
 H   -2.932222015043    2.755231601088   -0.894766000000
 H   -2.932222015043    2.755231601088    0.894766000000
 O   -2.392483015043    0.955571601088    0.000000000000
 C   -3.722070015043    0.445164601088    0.000000000000
 H   -4.275453015043    0.775943601088   -0.899133000000
 H   -4.275453015043    0.775943601088    0.899133000000
 H   -3.648987015043   -0.650310398912    0.000000000000
 K    3.671078649606   -2.542030425873    0.000000000000
