13

 C   -0.984352892969    2.880790543735    0.000000000000
 H   -0.949832892969    3.981642543735    0.000000000000
 H   -0.459769892969    2.511645543735    0.893619000000
 H   -0.459769892969    2.511645543735   -0.893619000000
 C   -2.427132892969    2.403739543735    0.000000000000
 H   -2.966306892969    2.774892543735   -0.894766000000
 H   -2.966306892969    2.774892543735    0.894766000000
 O   -2.426567892969    0.975232543735    0.000000000000
 C   -3.756154892969    0.464825543735    0.000000000000
 H   -4.309537892969    0.795604543735   -0.899133000000
 H   -4.309537892969    0.795604543735    0.899133000000
 H   -3.683071892969   -0.630649456265    0.000000000000
 K    3.723616081174   -2.572335226468    0.000000000000
