13

 C   -1.086607526749    2.939773371676    0.000000000000
 H   -1.052087526749    4.040625371676    0.000000000000
 H   -0.562024526749    2.570628371676    0.893619000000
 H   -0.562024526749    2.570628371676   -0.893619000000
 C   -2.529387526749    2.462722371676    0.000000000000
 H   -3.068561526749    2.833875371676   -0.894766000000
 H   -3.068561526749    2.833875371676    0.894766000000
 O   -2.528822526749    1.034215371676    0.000000000000
 C   -3.858409526749    0.523808371676    0.000000000000
 H   -4.411792526749    0.854587371676   -0.899133000000
 H   -4.411792526749    0.854587371676    0.899133000000
 H   -3.785326526749   -0.571666628324    0.000000000000
 K    3.881228375879   -2.663249628254    0.000000000000
