13

 C   -1.222947038456    3.018417142264    0.000000000000
 H   -1.188427038456    4.119269142264    0.000000000000
 H   -0.698364038456    2.649272142264    0.893619000000
 H   -0.698364038456    2.649272142264   -0.893619000000
 C   -2.665727038456    2.541366142264    0.000000000000
 H   -3.204901038456    2.912519142264   -0.894766000000
 H   -3.204901038456    2.912519142264    0.894766000000
 O   -2.665162038456    1.112859142264    0.000000000000
 C   -3.994749038456    0.602452142264    0.000000000000
 H   -4.548132038456    0.933231142264   -0.899133000000
 H   -4.548132038456    0.933231142264    0.899133000000
 H   -3.921666038456   -0.493022857736    0.000000000000
 K    4.091378102153   -2.784468830636    0.000000000000
