13

 C   -1.257031916383    3.038078084911    0.000000000000
 H   -1.222511916383    4.138930084911    0.000000000000
 H   -0.732448916383    2.668933084911    0.893619000000
 H   -0.732448916383    2.668933084911   -0.893619000000
 C   -2.699811916383    2.561027084911    0.000000000000
 H   -3.238985916383    2.932180084911   -0.894766000000
 H   -3.238985916383    2.932180084911    0.894766000000
 O   -2.699246916383    1.132520084911    0.000000000000
 C   -4.028833916383    0.622113084911    0.000000000000
 H   -4.582216916383    0.952892084911   -0.899133000000
 H   -4.582216916383    0.952892084911    0.899133000000
 H   -3.955750916383   -0.473361915089    0.000000000000
 K    4.143915533721   -2.814773631231    0.000000000000
