13

 C   -1.291116794310    3.057739027558    0.000000000000
 H   -1.256596794310    4.158591027558    0.000000000000
 H   -0.766533794310    2.688594027558    0.893619000000
 H   -0.766533794310    2.688594027558   -0.893619000000
 C   -2.733896794310    2.580688027558    0.000000000000
 H   -3.273070794310    2.951841027558   -0.894766000000
 H   -3.273070794310    2.951841027558    0.894766000000
 O   -2.733331794310    1.152181027558    0.000000000000
 C   -4.062918794310    0.641774027558    0.000000000000
 H   -4.616301794310    0.972553027558   -0.899133000000
 H   -4.616301794310    0.972553027558    0.899133000000
 H   -3.989835794310   -0.453700972442    0.000000000000
 K    4.196452965289   -2.845078431826    0.000000000000
