13

 C   -1.325201672236    3.077399970205    0.000000000000
 H   -1.290681672236    4.178251970205    0.000000000000
 H   -0.800618672236    2.708254970205    0.893619000000
 H   -0.800618672236    2.708254970205   -0.893619000000
 C   -2.767981672236    2.600348970205    0.000000000000
 H   -3.307155672236    2.971501970205   -0.894766000000
 H   -3.307155672236    2.971501970205    0.894766000000
 O   -2.767416672236    1.171841970205    0.000000000000
 C   -4.097003672236    0.661434970205    0.000000000000
 H   -4.650386672236    0.992213970205   -0.899133000000
 H   -4.650386672236    0.992213970205    0.899133000000
 H   -4.023920672236   -0.434040029795    0.000000000000
 K    4.248990396857   -2.875383232422    0.000000000000
