13

 C   -1.427456306016    3.136382798146    0.000000000000
 H   -1.392936306016    4.237234798146    0.000000000000
 H   -0.902873306016    2.767237798146    0.893619000000
 H   -0.902873306016    2.767237798146   -0.893619000000
 C   -2.870236306016    2.659331798146    0.000000000000
 H   -3.409410306016    3.030484798146   -0.894766000000
 H   -3.409410306016    3.030484798146    0.894766000000
 O   -2.869671306016    1.230824798146    0.000000000000
 C   -4.199258306016    0.720417798146    0.000000000000
 H   -4.752641306016    1.051196798146   -0.899133000000
 H   -4.752641306016    1.051196798146    0.899133000000
 H   -4.126175306016   -0.375057201854    0.000000000000
 K    4.406602691562   -2.966297634207    0.000000000000
