13

 C   -1.461541183943    3.156043740792    0.000000000000
 H   -1.427021183943    4.256895740792    0.000000000000
 H   -0.936958183943    2.786898740792    0.893619000000
 H   -0.936958183943    2.786898740792   -0.893619000000
 C   -2.904321183943    2.678992740792    0.000000000000
 H   -3.443495183943    3.050145740792   -0.894766000000
 H   -3.443495183943    3.050145740792    0.894766000000
 O   -2.903756183943    1.250485740792    0.000000000000
 C   -4.233343183943    0.740078740792    0.000000000000
 H   -4.786726183943    1.070857740792   -0.899133000000
 H   -4.786726183943    1.070857740792    0.899133000000
 H   -4.160260183943   -0.355396259208    0.000000000000
 K    4.459140123131   -2.996602434803    0.000000000000
