13

 C   -1.802389963210    3.352653167262    0.000000000000
 H   -1.767869963210    4.453505167262    0.000000000000
 H   -1.277806963210    2.983508167262    0.893619000000
 H   -1.277806963210    2.983508167262   -0.893619000000
 C   -3.245169963210    2.875602167262    0.000000000000
 H   -3.784343963210    3.246755167262   -0.894766000000
 H   -3.784343963210    3.246755167262    0.894766000000
 O   -3.244604963210    1.447095167262    0.000000000000
 C   -4.574191963210    0.936688167262    0.000000000000
 H   -5.127574963210    1.267467167262   -0.899133000000
 H   -5.127574963210    1.267467167262    0.899133000000
 H   -4.501108963210   -0.158786832738    0.000000000000
 K    4.984514438814   -3.299650440756    0.000000000000
