13

 C   -1.836474841137    3.372314109909    0.000000000000
 H   -1.801954841137    4.473166109909    0.000000000000
 H   -1.311891841137    3.003169109909    0.893619000000
 H   -1.311891841137    3.003169109909   -0.893619000000
 C   -3.279254841137    2.895263109909    0.000000000000
 H   -3.818428841137    3.266416109909   -0.894766000000
 H   -3.818428841137    3.266416109909    0.894766000000
 O   -3.278689841137    1.466756109909    0.000000000000
 C   -4.608276841137    0.956349109909    0.000000000000
 H   -5.161659841137    1.287128109909   -0.899133000000
 H   -5.161659841137    1.287128109909    0.899133000000
 H   -4.535193841137   -0.139125890091    0.000000000000
 K    5.037051870382   -3.329955241351    0.000000000000
