13

 C   -1.938729474917    3.431296937850    0.000000000000
 H   -1.904209474917    4.532148937850    0.000000000000
 H   -1.414146474917    3.062151937850    0.893619000000
 H   -1.414146474917    3.062151937850   -0.893619000000
 C   -3.381509474917    2.954245937850    0.000000000000
 H   -3.920683474917    3.325398937850   -0.894766000000
 H   -3.920683474917    3.325398937850    0.894766000000
 O   -3.380944474917    1.525738937850    0.000000000000
 C   -4.710531474917    1.015331937850    0.000000000000
 H   -5.263914474917    1.346110937850   -0.899133000000
 H   -5.263914474917    1.346110937850    0.899133000000
 H   -4.637448474917   -0.080143062150    0.000000000000
 K    5.194664165087   -3.420869643137    0.000000000000
