14

 P    0.139468676316   -0.304741667796   -0.475206264365
 O   -0.447531323684    0.745258332204    0.479793735635
 O   -0.126531323684   -0.256741667796   -1.987206264365
 O    1.802468676316   -0.478741667796   -0.188206264365
 O   -0.175531323684   -1.862741667796    0.116793735635
 C    2.539468676316    0.686258332204   -0.565206264365
 H    2.208468676316    1.569258332204    0.010793735635
 H    2.424468676316    0.897258332204   -1.643206264365
 H    3.599468676316    0.484258332204   -0.345206264365
 C   -1.566531323684   -2.185741667796    0.066793735635
 H   -1.944531323684   -2.158741667796   -0.971206264365
 H   -2.159531323684   -1.486741667796    0.682793735635
 H   -1.676531323684   -3.205741667796    0.466793735635
 K   -0.906144707059    1.565605951529    1.225919427497
