14

 P    0.148550582939   -0.320986986288   -0.489981768327
 O   -0.438449417061    0.729013013712    0.465018231673
 O   -0.117449417061   -0.272986986288   -2.001981768327
 O    1.811550582939   -0.494986986288   -0.202981768327
 O   -0.166449417061   -1.878986986288    0.102018231673
 C    2.548550582939    0.670013013712   -0.579981768327
 H    2.217550582939    1.553013013712   -0.003981768327
 H    2.433550582939    0.881013013712   -1.657981768327
 H    3.608550582939    0.468013013712   -0.359981768327
 C   -1.557449417061   -2.201986986288    0.052018231673
 H   -1.935449417061   -2.174986986288   -0.985981768327
 H   -2.150449417061   -1.502986986288    0.668018231673
 H   -1.667449417061   -3.221986986288    0.452018231673
 K   -0.935280582384    1.617722934647    1.273321064524
