14

 P    0.157632489563   -0.337232304781   -0.504757272289
 O   -0.429367510437    0.712767695219    0.450242727711
 O   -0.108367510437   -0.289232304781   -2.016757272289
 O    1.820632489563   -0.511232304781   -0.217757272289
 O   -0.157367510437   -1.895232304781    0.087242727711
 C    2.557632489563    0.653767695219   -0.594757272289
 H    2.226632489563    1.536767695219   -0.018757272289
 H    2.442632489563    0.864767695219   -1.672757272289
 H    3.617632489563    0.451767695219   -0.374757272289
 C   -1.548367510437   -2.218232304781    0.037242727711
 H   -1.926367510437   -2.191232304781   -1.000757272289
 H   -2.141367510437   -1.519232304781    0.653242727711
 H   -1.658367510437   -3.238232304781    0.437242727711
 K   -0.964416457708    1.669839917765    1.320722701550
