14

 P    0.175796302811   -0.369722941765   -0.534308280213
 O   -0.411203697189    0.680277058235    0.420691719787
 O   -0.090203697189   -0.321722941765   -2.046308280213
 O    1.838796302811   -0.543722941765   -0.247308280213
 O   -0.139203697189   -1.927722941765    0.057691719787
 C    2.575796302811    0.621277058235   -0.624308280213
 H    2.244796302811    1.504277058235   -0.048308280213
 H    2.460796302811    0.832277058235   -1.702308280213
 H    3.635796302811    0.419277058235   -0.404308280213
 C   -1.530203697189   -2.250722941765    0.007691719787
 H   -1.908203697189   -2.223722941765   -1.030308280213
 H   -2.123203697189   -1.551722941765    0.623691719787
 H   -1.640203697189   -3.270722941765    0.407691719787
 K   -1.022688208356    1.774073884002    1.415525975604
