14

 P    0.193960116058   -0.402213578749   -0.563859288137
 O   -0.393039883942    0.647786421251    0.391140711863
 O   -0.072039883942   -0.354213578749   -2.075859288137
 O    1.856960116058   -0.576213578749   -0.276859288137
 O   -0.121039883942   -1.960213578749    0.028140711863
 C    2.593960116058    0.588786421251   -0.653859288137
 H    2.262960116058    1.471786421251   -0.077859288137
 H    2.478960116058    0.799786421251   -1.731859288137
 H    3.653960116058    0.386786421251   -0.433859288137
 C   -1.512039883942   -2.283213578749   -0.021859288137
 H   -1.890039883942   -2.256213578749   -1.059859288137
 H   -2.105039883942   -1.584213578749    0.594140711863
 H   -1.622039883942   -3.303213578749    0.378140711863
 K   -1.080959959005    1.878307850238    1.510329249657
