14

 P    0.221205835929   -0.450949534226   -0.608185800023
 O   -0.365794164071    0.599050465774    0.346814199977
 O   -0.044794164071   -0.402949534226   -2.120185800023
 O    1.884205835929   -0.624949534226   -0.321185800023
 O   -0.093794164071   -2.008949534226   -0.016185800023
 C    2.621205835929    0.540050465774   -0.698185800023
 H    2.290205835929    1.423050465774   -0.122185800023
 H    2.506205835929    0.751050465774   -1.776185800023
 H    3.681205835929    0.338050465774   -0.478185800023
 C   -1.484794164071   -2.331949534226   -0.066185800023
 H   -1.862794164071   -2.304949534226   -1.104185800023
 H   -2.077794164071   -1.632949534226    0.549814199977
 H   -1.594794164071   -3.351949534226    0.333814199977
 K   -1.168367584977    2.034658799593    1.652534160737
