14

 P    0.230287742553   -0.467194852718   -0.622961303984
 O   -0.356712257447    0.582805147282    0.332038696016
 O   -0.035712257447   -0.419194852718   -2.134961303984
 O    1.893287742553   -0.641194852718   -0.335961303984
 O   -0.084712257447   -2.025194852718   -0.030961303984
 C    2.630287742553    0.523805147282   -0.712961303984
 H    2.299287742553    1.406805147282   -0.136961303984
 H    2.515287742553    0.734805147282   -1.790961303984
 H    3.690287742553    0.321805147282   -0.492961303984
 C   -1.475712257447   -2.348194852718   -0.080961303984
 H   -1.853712257447   -2.321194852718   -1.118961303984
 H   -2.068712257447   -1.649194852718    0.535038696016
 H   -1.585712257447   -3.368194852718    0.319038696016
 K   -1.197503460301    2.086775782711    1.699935797763
