14

 P    0.239369649177   -0.483440171210   -0.637736807946
 O   -0.347630350823    0.566559828790    0.317263192054
 O   -0.026630350823   -0.435440171210   -2.149736807946
 O    1.902369649177   -0.657440171210   -0.350736807946
 O   -0.075630350823   -2.041440171210   -0.045736807946
 C    2.639369649177    0.507559828790   -0.727736807946
 H    2.308369649177    1.390559828790   -0.151736807946
 H    2.524369649177    0.718559828790   -1.805736807946
 H    3.699369649177    0.305559828790   -0.507736807946
 C   -1.466630350823   -2.364440171210   -0.095736807946
 H   -1.844630350823   -2.337440171210   -1.133736807946
 H   -2.059630350823   -1.665440171210    0.520263192054
 H   -1.576630350823   -3.384440171210    0.304263192054
 K   -1.226639335626    2.138892765830    1.747337434790
