14

 P    0.266615369048   -0.532176126687   -0.682063319832
 O   -0.320384630952    0.517823873313    0.272936680168
 O    0.000615369048   -0.484176126687   -2.194063319832
 O    1.929615369048   -0.706176126687   -0.395063319832
 O   -0.048384630952   -2.090176126687   -0.090063319832
 C    2.666615369048    0.458823873313   -0.772063319832
 H    2.335615369048    1.341823873313   -0.196063319832
 H    2.551615369048    0.669823873313   -1.850063319832
 H    3.726615369048    0.256823873313   -0.552063319832
 C   -1.439384630952   -2.413176126687   -0.140063319832
 H   -1.817384630952   -2.386176126687   -1.178063319832
 H   -2.032384630952   -1.714176126687    0.475936680168
 H   -1.549384630952   -3.433176126687    0.259936680168
 K   -1.314046961598    2.295243715184    1.889542345869
