14

 P    0.275697275672   -0.548421445179   -0.696838823794
 O   -0.311302724328    0.501578554821    0.258161176206
 O    0.009697275672   -0.500421445179   -2.208838823794
 O    1.938697275672   -0.722421445179   -0.409838823794
 O   -0.039302724328   -2.106421445179   -0.104838823794
 C    2.675697275672    0.442578554821   -0.786838823794
 H    2.344697275672    1.325578554821   -0.210838823794
 H    2.560697275672    0.653578554821   -1.864838823794
 H    3.735697275672    0.240578554821   -0.566838823794
 C   -1.430302724328   -2.429421445179   -0.154838823794
 H   -1.808302724328   -2.402421445179   -1.192838823794
 H   -2.023302724328   -1.730421445179    0.461161176206
 H   -1.540302724328   -3.449421445179    0.245161176206
 K   -1.343182836922    2.347360698302    1.936943982896
