14

 P    0.293861088919   -0.580912082163   -0.726389831718
 O   -0.293138911081    0.469087917837    0.228610168282
 O    0.027861088919   -0.532912082163   -2.238389831718
 O    1.956861088919   -0.754912082163   -0.439389831718
 O   -0.021138911081   -2.138912082163   -0.134389831718
 C    2.693861088919    0.410087917837   -0.816389831718
 H    2.362861088919    1.293087917837   -0.240389831718
 H    2.578861088919    0.621087917837   -1.894389831718
 H    3.753861088919    0.208087917837   -0.596389831718
 C   -1.412138911081   -2.461912082163   -0.184389831718
 H   -1.790138911081   -2.434912082163   -1.222389831718
 H   -2.005138911081   -1.762912082163    0.431610168282
 H   -1.522138911081   -3.481912082163    0.215610168282
 K   -1.401454587571    2.451594664539    2.031747256949
