14

 P    0.321106808790   -0.629648037640   -0.770716343604
 O   -0.265893191210    0.420351962360    0.184283656396
 O    0.055106808790   -0.581648037640   -2.282716343604
 O    1.984106808790   -0.803648037640   -0.483716343604
 O    0.006106808790   -2.187648037640   -0.178716343604
 C    2.721106808790    0.361351962360   -0.860716343604
 H    2.390106808790    1.244351962360   -0.284716343604
 H    2.606106808790    0.572351962360   -1.938716343604
 H    3.781106808790    0.159351962360   -0.640716343604
 C   -1.384893191210   -2.510648037640   -0.228716343604
 H   -1.762893191210   -2.483648037640   -1.266716343604
 H   -1.977893191210   -1.811648037640    0.387283656396
 H   -1.494893191210   -3.530648037640    0.171283656396
 K   -1.488862213543    2.607945613894    2.173952168029
