14

 P    0.330188715414   -0.645893356132   -0.785491847566
 O   -0.256811284586    0.404106643868    0.169508152434
 O    0.064188715414   -0.597893356132   -2.297491847566
 O    1.993188715414   -0.819893356132   -0.498491847566
 O    0.015188715414   -2.203893356132   -0.193491847566
 C    2.730188715414    0.345106643868   -0.875491847566
 H    2.399188715414    1.228106643868   -0.299491847566
 H    2.615188715414    0.556106643868   -1.953491847566
 H    3.790188715414    0.143106643868   -0.655491847566
 C   -1.375811284586   -2.526893356132   -0.243491847566
 H   -1.753811284586   -2.499893356132   -1.281491847566
 H   -1.968811284586   -1.827893356132    0.372508152434
 H   -1.485811284586   -3.546893356132    0.156508152434
 K   -1.517998088868    2.660062597012    2.221353805056
