14

 P    0.339270622038   -0.662138674624   -0.800267351528
 O   -0.247729377962    0.387861325376    0.154732648472
 O    0.073270622038   -0.614138674624   -2.312267351528
 O    2.002270622038   -0.836138674624   -0.513267351528
 O    0.024270622038   -2.220138674624   -0.208267351528
 C    2.739270622038    0.328861325376   -0.890267351528
 H    2.408270622038    1.211861325376   -0.314267351528
 H    2.624270622038    0.539861325376   -1.968267351528
 H    3.799270622038    0.126861325376   -0.670267351528
 C   -1.366729377962   -2.543138674624   -0.258267351528
 H   -1.744729377962   -2.516138674624   -1.296267351528
 H   -1.959729377962   -1.844138674624    0.357732648472
 H   -1.476729377962   -3.563138674624    0.141732648472
 K   -1.547133964192    2.712179580130    2.268755442082
