14

 P    0.348352528661   -0.678383993116   -0.815042855490
 O   -0.238647471339    0.371616006884    0.139957144510
 O    0.082352528661   -0.630383993116   -2.327042855490
 O    2.011352528661   -0.852383993116   -0.528042855490
 O    0.033352528661   -2.236383993116   -0.223042855490
 C    2.748352528661    0.312616006884   -0.905042855490
 H    2.417352528661    1.195616006884   -0.329042855490
 H    2.633352528661    0.523616006884   -1.983042855490
 H    3.808352528661    0.110616006884   -0.685042855490
 C   -1.357647471339   -2.559383993116   -0.273042855490
 H   -1.735647471339   -2.532383993116   -1.311042855490
 H   -1.950647471339   -1.860383993116    0.342957144510
 H   -1.467647471339   -3.579383993116    0.126957144510
 K   -1.576269839516    2.764296563248    2.316157079109
