14

 P    0.393762061780   -0.759610585577   -0.888920375299
 O   -0.193237938220    0.290389414423    0.066079624701
 O    0.127762061780   -0.711610585577   -2.400920375299
 O    2.056762061780   -0.933610585577   -0.601920375299
 O    0.078762061780   -2.317610585577   -0.296920375299
 C    2.793762061780    0.231389414423   -0.978920375299
 H    2.462762061780    1.114389414423   -0.402920375299
 H    2.678762061780    0.442389414423   -2.056920375299
 H    3.853762061780    0.029389414423   -0.758920375299
 C   -1.312237938220   -2.640610585577   -0.346920375299
 H   -1.690237938220   -2.613610585577   -1.384920375299
 H   -1.905237938220   -1.941610585577    0.269079624701
 H   -1.422237938220   -3.660610585577    0.053079624701
 K   -1.721949216137    3.024881478840    2.553165264242
