14

 P    0.457335408146   -0.873327815022   -0.992348903033
 O   -0.129664591854    0.176672184978   -0.037348903033
 O    0.191335408146   -0.825327815022   -2.504348903033
 O    2.120335408146   -1.047327815022   -0.705348903033
 O    0.142335408146   -2.431327815022   -0.400348903033
 C    2.857335408146    0.117672184978   -1.082348903033
 H    2.526335408146    1.000672184978   -0.506348903033
 H    2.742335408146    0.328672184978   -2.160348903033
 H    3.917335408146   -0.084327815022   -0.862348903033
 C   -1.248664591854   -2.754327815022   -0.450348903033
 H   -1.626664591854   -2.727327815022   -1.488348903033
 H   -1.841664591854   -2.055327815022    0.165651096967
 H   -1.358664591854   -3.774327815022   -0.050348903033
 K   -1.925900343406    3.389700360667    2.884976723428
