14

 P    0.484581128017   -0.922063770499   -1.036675414919
 O   -0.102418871983    0.127936229501   -0.081675414919
 O    0.218581128017   -0.874063770499   -2.548675414919
 O    2.147581128017   -1.096063770499   -0.749675414919
 O    0.169581128017   -2.480063770499   -0.444675414919
 C    2.884581128017    0.068936229501   -1.126675414919
 H    2.553581128017    0.951936229501   -0.550675414919
 H    2.769581128017    0.279936229501   -2.204675414919
 H    3.944581128017   -0.133063770499   -0.906675414919
 C   -1.221418871983   -2.803063770499   -0.494675414919
 H   -1.599418871983   -2.776063770499   -1.532675414919
 H   -1.814418871983   -2.104063770499    0.121324585081
 H   -1.331418871983   -3.823063770499   -0.094675414919
 K   -2.013307969379    3.546051310022    3.027181634508
