14

 P    0.511826847888   -0.970799725976   -1.081001926804
 O   -0.075173152112    0.079200274024   -0.126001926804
 O    0.245826847888   -0.922799725976   -2.593001926804
 O    2.174826847888   -1.144799725976   -0.794001926804
 O    0.196826847888   -2.528799725976   -0.489001926804
 C    2.911826847888    0.020200274024   -1.171001926804
 H    2.580826847888    0.903200274024   -0.595001926804
 H    2.796826847888    0.231200274024   -2.249001926804
 H    3.971826847888   -0.181799725976   -0.951001926804
 C   -1.194173152112   -2.851799725976   -0.539001926804
 H   -1.572173152112   -2.824799725976   -1.577001926804
 H   -1.787173152112   -2.152799725976    0.076998073196
 H   -1.304173152112   -3.871799725976   -0.139001926804
 K   -2.100715595351    3.702402259377    3.169386545587
