14

 P    0.520908754512   -0.987045044468   -1.095777430766
 O   -0.066091245488    0.062954955532   -0.140777430766
 O    0.254908754512   -0.939045044468   -2.607777430766
 O    2.183908754512   -1.161045044468   -0.808777430766
 O    0.205908754512   -2.545045044468   -0.503777430766
 C    2.920908754512    0.003954955532   -1.185777430766
 H    2.589908754512    0.886954955532   -0.609777430766
 H    2.805908754512    0.214954955532   -2.263777430766
 H    3.980908754512   -0.198045044468   -0.965777430766
 C   -1.185091245488   -2.868045044468   -0.553777430766
 H   -1.563091245488   -2.841045044468   -1.591777430766
 H   -1.778091245488   -2.169045044468    0.062222569234
 H   -1.295091245488   -3.888045044468   -0.153777430766
 K   -2.129851470676    3.754519242495    3.216788182614
