14

 P    0.539072567759   -1.019535681452   -1.125328438690
 O   -0.047927432241    0.030464318548   -0.170328438690
 O    0.273072567759   -0.971535681452   -2.637328438690
 O    2.202072567759   -1.193535681452   -0.838328438690
 O    0.224072567759   -2.577535681452   -0.533328438690
 C    2.939072567759   -0.028535681452   -1.215328438690
 H    2.608072567759    0.854464318548   -0.639328438690
 H    2.824072567759    0.182464318548   -2.293328438690
 H    3.999072567759   -0.230535681452   -0.995328438690
 C   -1.166927432241   -2.900535681452   -0.583328438690
 H   -1.544927432241   -2.873535681452   -1.621328438690
 H   -1.759927432241   -2.201535681452    0.032671561310
 H   -1.276927432241   -3.920535681452   -0.183328438690
 K   -2.188123221324    3.858753208732    3.311591456667
