14

 P    0.548154474383   -1.035780999944   -1.140103942652
 O   -0.038845525617    0.014219000056   -0.185103942652
 O    0.282154474383   -0.987780999944   -2.652103942652
 O    2.211154474383   -1.209780999944   -0.853103942652
 O    0.233154474383   -2.593780999944   -0.548103942652
 C    2.948154474383   -0.044780999944   -1.230103942652
 H    2.617154474383    0.838219000056   -0.654103942652
 H    2.833154474383    0.166219000056   -2.308103942652
 H    4.008154474383   -0.246780999944   -1.010103942652
 C   -1.157845525617   -2.916780999944   -0.598103942652
 H   -1.535845525617   -2.889780999944   -1.636103942652
 H   -1.750845525617   -2.217780999944    0.017896057348
 H   -1.267845525617   -3.936780999944   -0.198103942652
 K   -2.217259096648    3.910870191850    3.358993093694
