14

 P    0.557236381007   -1.052026318436   -1.154879446614
 O   -0.029763618993   -0.002026318436   -0.199879446614
 O    0.291236381007   -1.004026318436   -2.666879446614
 O    2.220236381007   -1.226026318436   -0.867879446614
 O    0.242236381007   -2.610026318436   -0.562879446614
 C    2.957236381007   -0.061026318436   -1.244879446614
 H    2.626236381007    0.821973681564   -0.668879446614
 H    2.842236381007    0.149973681564   -2.322879446614
 H    4.017236381007   -0.263026318436   -1.024879446614
 C   -1.148763618993   -2.933026318436   -0.612879446614
 H   -1.526763618993   -2.906026318436   -1.650879446614
 H   -1.741763618993   -2.234026318436    0.003120553386
 H   -1.258763618993   -3.953026318436   -0.212879446614
 K   -2.246394971972    3.962987174968    3.406394730720
