14

 P    0.620809727373   -1.165743547882   -1.258307974348
 O    0.033809727373   -0.115743547882   -0.303307974348
 O    0.354809727373   -1.117743547882   -2.770307974348
 O    2.283809727373   -1.339743547882   -0.971307974348
 O    0.305809727373   -2.723743547882   -0.666307974348
 C    3.020809727373   -0.174743547882   -1.348307974348
 H    2.689809727373    0.708256452118   -0.772307974348
 H    2.905809727373    0.036256452118   -2.426307974348
 H    4.080809727373   -0.376743547882   -1.128307974348
 C   -1.085190272627   -3.046743547882   -0.716307974348
 H   -1.463190272627   -3.019743547882   -1.754307974348
 H   -1.678190272627   -2.347743547882   -0.100307974348
 H   -1.195190272627   -4.066743547882   -0.316307974348
 K   -2.450346099242    4.327806056796    3.738206189907
