14

 P    0.629891633997   -1.181988866374   -1.273083478310
 O    0.042891633997   -0.131988866374   -0.318083478310
 O    0.363891633997   -1.133988866374   -2.785083478310
 O    2.292891633997   -1.355988866374   -0.986083478310
 O    0.314891633997   -2.739988866374   -0.681083478310
 C    3.029891633997   -0.190988866374   -1.363083478310
 H    2.698891633997    0.692011133626   -0.787083478310
 H    2.914891633997    0.020011133626   -2.441083478310
 H    4.089891633997   -0.392988866374   -1.143083478310
 C   -1.076108366003   -3.062988866374   -0.731083478310
 H   -1.454108366003   -3.035988866374   -1.769083478310
 H   -1.669108366003   -2.363988866374   -0.115083478310
 H   -1.186108366003   -4.082988866374   -0.331083478310
 K   -2.479481974566    4.379923039914    3.785607826933
