14

 P    0.684383073739   -1.279460777327   -1.361736502081
 O    0.097383073739   -0.229460777327   -0.406736502081
 O    0.418383073739   -1.231460777327   -2.873736502081
 O    2.347383073739   -1.453460777327   -1.074736502081
 O    0.369383073739   -2.837460777327   -0.769736502081
 C    3.084383073739   -0.288460777327   -1.451736502081
 H    2.753383073739    0.594539222673   -0.875736502081
 H    2.969383073739   -0.077460777327   -2.529736502081
 H    4.144383073739   -0.490460777327   -1.231736502081
 C   -1.021616926261   -3.160460777327   -0.819736502081
 H   -1.399616926261   -3.133460777327   -1.857736502081
 H   -1.614616926261   -2.461460777327   -0.203736502081
 H   -1.131616926261   -4.180460777327   -0.419736502081
 K   -2.654297226511    4.692624938623    4.070017649093
