14

 P    0.693464980363   -1.295706095819   -1.376512006043
 O    0.106464980363   -0.245706095819   -0.421512006043
 O    0.427464980363   -1.247706095819   -2.888512006043
 O    2.356464980363   -1.469706095819   -1.089512006043
 O    0.378464980363   -2.853706095819   -0.784512006043
 C    3.093464980363   -0.304706095819   -1.466512006043
 H    2.762464980363    0.578293904181   -0.890512006043
 H    2.978464980363   -0.093706095819   -2.544512006043
 H    4.153464980363   -0.506706095819   -1.246512006043
 C   -1.012535019637   -3.176706095819   -0.834512006043
 H   -1.390535019637   -3.149706095819   -1.872512006043
 H   -1.605535019637   -2.477706095819   -0.218512006043
 H   -1.122535019637   -4.196706095819   -0.434512006043
 K   -2.683433101835    4.744741921742    4.117419286119
