14

 P    0.702546886987   -1.311951414311   -1.391287510005
 O    0.115546886987   -0.261951414311   -0.436287510005
 O    0.436546886987   -1.263951414311   -2.903287510005
 O    2.365546886987   -1.485951414311   -1.104287510005
 O    0.387546886987   -2.869951414311   -0.799287510005
 C    3.102546886987   -0.320951414311   -1.481287510005
 H    2.771546886987    0.562048585689   -0.905287510005
 H    2.987546886987   -0.109951414311   -2.559287510005
 H    4.162546886987   -0.522951414311   -1.261287510005
 C   -1.003453113013   -3.192951414311   -0.849287510005
 H   -1.381453113013   -3.165951414311   -1.887287510005
 H   -1.596453113013   -2.493951414311   -0.233287510005
 H   -1.113453113013   -4.212951414311   -0.449287510005
 K   -2.712568977160    4.796858904860    4.164820923146
