14

 P    0.720710700234   -1.344442051296   -1.420838517929
 O    0.133710700234   -0.294442051296   -0.465838517929
 O    0.454710700234   -1.296442051296   -2.932838517929
 O    2.383710700234   -1.518442051296   -1.133838517929
 O    0.405710700234   -2.902442051296   -0.828838517929
 C    3.120710700234   -0.353442051296   -1.510838517929
 H    2.789710700234    0.529557948704   -0.934838517929
 H    3.005710700234   -0.142442051296   -2.588838517929
 H    4.180710700234   -0.555442051296   -1.290838517929
 C   -0.985289299766   -3.225442051296   -0.878838517929
 H   -1.363289299766   -3.198442051296   -1.916838517929
 H   -1.578289299766   -2.526442051296   -0.262838517929
 H   -1.095289299766   -4.245442051296   -0.478838517929
 K   -2.770840727808    4.901092871096    4.259624197199
