14

 P    0.729792606858   -1.360687369788   -1.435614021891
 O    0.142792606858   -0.310687369788   -0.480614021891
 O    0.463792606858   -1.312687369788   -2.947614021891
 O    2.392792606858   -1.534687369788   -1.148614021891
 O    0.414792606858   -2.918687369788   -0.843614021891
 C    3.129792606858   -0.369687369788   -1.525614021891
 H    2.798792606858    0.513312630212   -0.949614021891
 H    3.014792606858   -0.158687369788   -2.603614021891
 H    4.189792606858   -0.571687369788   -1.305614021891
 C   -0.976207393142   -3.241687369788   -0.893614021891
 H   -1.354207393142   -3.214687369788   -1.931614021891
 H   -1.569207393142   -2.542687369788   -0.277614021891
 H   -1.086207393142   -4.261687369788   -0.493614021891
 K   -2.799976603132    4.953209854215    4.307025834226
