14

 P    0.757038326729   -1.409423325264   -1.479940533777
 O    0.170038326729   -0.359423325264   -0.524940533777
 O    0.491038326729   -1.361423325264   -2.991940533777
 O    2.420038326729   -1.583423325264   -1.192940533777
 O    0.442038326729   -2.967423325264   -0.887940533777
 C    3.157038326729   -0.418423325264   -1.569940533777
 H    2.826038326729    0.464576674736   -0.993940533777
 H    3.042038326729   -0.207423325264   -2.647940533777
 H    4.217038326729   -0.620423325264   -1.349940533777
 C   -0.948961673271   -3.290423325264   -0.937940533777
 H   -1.326961673271   -3.263423325264   -1.975940533777
 H   -1.541961673271   -2.591423325264   -0.321940533777
 H   -1.058961673271   -4.310423325264   -0.537940533777
 K   -2.887384229105    5.109560803569    4.449230745305
