14

 P    0.766120233353   -1.425668643757   -1.494716037739
 O    0.179120233353   -0.375668643757   -0.539716037739
 O    0.500120233353   -1.377668643757   -3.006716037739
 O    2.429120233353   -1.599668643757   -1.207716037739
 O    0.451120233353   -2.983668643757   -0.902716037739
 C    3.166120233353   -0.434668643757   -1.584716037739
 H    2.835120233353    0.448331356243   -1.008716037739
 H    3.051120233353   -0.223668643757   -2.662716037739
 H    4.226120233353   -0.636668643757   -1.364716037739
 C   -0.939879766647   -3.306668643757   -0.952716037739
 H   -1.317879766647   -3.279668643757   -1.990716037739
 H   -1.532879766647   -2.607668643757   -0.336716037739
 H   -1.049879766647   -4.326668643757   -0.552716037739
 K   -2.916520104429    5.161677786688    4.496632382332
