14

 P    0.775202139976   -1.441913962249   -1.509491541700
 O    0.188202139976   -0.391913962249   -0.554491541700
 O    0.509202139976   -1.393913962249   -3.021491541700
 O    2.438202139976   -1.615913962249   -1.222491541700
 O    0.460202139976   -2.999913962249   -0.917491541700
 C    3.175202139976   -0.450913962249   -1.599491541700
 H    2.844202139976    0.432086037751   -1.023491541700
 H    3.060202139976   -0.239913962249   -2.677491541700
 H    4.235202139976   -0.652913962249   -1.379491541700
 C   -0.930797860024   -3.322913962249   -0.967491541700
 H   -1.308797860024   -3.295913962249   -2.005491541700
 H   -1.523797860024   -2.623913962249   -0.351491541700
 H   -1.040797860024   -4.342913962249   -0.567491541700
 K   -2.945655979753    5.213794769806    4.544034019359
