14

 P    0.802447859847   -1.490649917725   -1.553818053586
 O    0.215447859847   -0.440649917725   -0.598818053586
 O    0.536447859847   -1.442649917725   -3.065818053586
 O    2.465447859847   -1.664649917725   -1.266818053586
 O    0.487447859847   -3.048649917725   -0.961818053586
 C    3.202447859847   -0.499649917725   -1.643818053586
 H    2.871447859847    0.383350082275   -1.067818053586
 H    3.087447859847   -0.288649917725   -2.721818053586
 H    4.262447859847   -0.701649917725   -1.423818053586
 C   -0.903552140153   -3.371649917725   -1.011818053586
 H   -1.281552140153   -3.344649917725   -2.049818053586
 H   -1.496552140153   -2.672649917725   -0.395818053586
 H   -1.013552140153   -4.391649917725   -0.611818053586
 K   -3.033063605726    5.370145719161    4.686238930438
