14

 P    0.829693579719   -1.539385873202   -1.598144565472
 O    0.242693579719   -0.489385873202   -0.643144565472
 O    0.563693579719   -1.491385873202   -3.110144565472
 O    2.492693579719   -1.713385873202   -1.311144565472
 O    0.514693579719   -3.097385873202   -1.006144565472
 C    3.229693579719   -0.548385873202   -1.688144565472
 H    2.898693579719    0.334614126798   -1.112144565472
 H    3.114693579719   -0.337385873202   -2.766144565472
 H    4.289693579719   -0.750385873202   -1.468144565472
 C   -0.876306420281   -3.420385873202   -1.056144565472
 H   -1.254306420281   -3.393385873202   -2.094144565472
 H   -1.469306420281   -2.721385873202   -0.440144565472
 H   -0.986306420281   -4.440385873202   -0.656144565472
 K   -3.120471231698    5.526496668515    4.828443841518
