14

 P    0.847857392966   -1.571876510186   -1.627695573396
 O    0.260857392966   -0.521876510186   -0.672695573396
 O    0.581857392966   -1.523876510186   -3.139695573396
 O    2.510857392966   -1.745876510186   -1.340695573396
 O    0.532857392966   -3.129876510186   -1.035695573396
 C    3.247857392966   -0.580876510186   -1.717695573396
 H    2.916857392966    0.302123489814   -1.141695573396
 H    3.132857392966   -0.369876510186   -2.795695573396
 H    4.307857392966   -0.782876510186   -1.497695573396
 C   -0.858142607034   -3.452876510186   -1.085695573396
 H   -1.236142607034   -3.425876510186   -2.123695573396
 H   -1.451142607034   -2.753876510186   -0.469695573396
 H   -0.968142607034   -4.472876510186   -0.685695573396
 K   -3.178742982347    5.630730634752    4.923247115571
