14

 P    0.856939299590   -1.588121828678   -1.642471077358
 O    0.269939299590   -0.538121828678   -0.687471077358
 O    0.590939299590   -1.540121828678   -3.154471077358
 O    2.519939299590   -1.762121828678   -1.355471077358
 O    0.541939299590   -3.146121828678   -1.050471077358
 C    3.256939299590   -0.597121828678   -1.732471077358
 H    2.925939299590    0.285878171322   -1.156471077358
 H    3.141939299590   -0.386121828678   -2.810471077358
 H    4.316939299590   -0.799121828678   -1.512471077358
 C   -0.849060700410   -3.469121828678   -1.100471077358
 H   -1.227060700410   -3.442121828678   -2.138471077358
 H   -1.442060700410   -2.770121828678   -0.484471077358
 H   -0.959060700410   -4.489121828678   -0.700471077358
 K   -3.207878857671    5.682847617870    4.970648752598
