14

 P    0.875103112837   -1.620612465663   -1.672022085282
 O    0.288103112837   -0.570612465663   -0.717022085282
 O    0.609103112837   -1.572612465663   -3.184022085282
 O    2.538103112837   -1.794612465663   -1.385022085282
 O    0.560103112837   -3.178612465663   -1.080022085282
 C    3.275103112837   -0.629612465663   -1.762022085282
 H    2.944103112837    0.253387534337   -1.186022085282
 H    3.160103112837   -0.418612465663   -2.840022085282
 H    4.335103112837   -0.831612465663   -1.542022085282
 C   -0.830896887163   -3.501612465663   -1.130022085282
 H   -1.208896887163   -3.474612465663   -2.168022085282
 H   -1.423896887163   -2.802612465663   -0.514022085282
 H   -0.940896887163   -4.521612465663   -0.730022085282
 K   -3.266150608319    5.787081584106    5.065452026651
