14

 P    0.893266926085   -1.653103102647   -1.701573093206
 O    0.306266926085   -0.603103102647   -0.746573093206
 O    0.627266926085   -1.605103102647   -3.213573093206
 O    2.556266926085   -1.827103102647   -1.414573093206
 O    0.578266926085   -3.211103102647   -1.109573093206
 C    3.293266926085   -0.662103102647   -1.791573093206
 H    2.962266926085    0.220896897353   -1.215573093206
 H    3.178266926085   -0.451103102647   -2.869573093206
 H    4.353266926085   -0.864103102647   -1.571573093206
 C   -0.812733073915   -3.534103102647   -1.159573093206
 H   -1.190733073915   -3.507103102647   -2.197573093206
 H   -1.405733073915   -2.835103102647   -0.543573093206
 H   -0.922733073915   -4.554103102647   -0.759573093206
 K   -3.324422358968    5.891315550343    5.160255300704
