14

 P    0.911430739332   -1.685593739631   -1.731124101130
 O    0.324430739332   -0.635593739631   -0.776124101130
 O    0.645430739332   -1.637593739631   -3.243124101130
 O    2.574430739332   -1.859593739631   -1.444124101130
 O    0.596430739332   -3.243593739631   -1.139124101130
 C    3.311430739332   -0.694593739631   -1.821124101130
 H    2.980430739332    0.188406260369   -1.245124101130
 H    3.196430739332   -0.483593739631   -2.899124101130
 H    4.371430739332   -0.896593739631   -1.601124101130
 C   -0.794569260668   -3.566593739631   -1.189124101130
 H   -1.172569260668   -3.539593739631   -2.227124101130
 H   -1.387569260668   -2.867593739631   -0.573124101130
 H   -0.904569260668   -4.586593739631   -0.789124101130
 K   -3.382694109616    5.995549516579    5.255058574757
