14

 P    0.920512645956   -1.701839058124   -1.745899605091
 O    0.333512645956   -0.651839058124   -0.790899605091
 O    0.654512645956   -1.653839058124   -3.257899605091
 O    2.583512645956   -1.875839058124   -1.458899605091
 O    0.605512645956   -3.259839058124   -1.153899605091
 C    3.320512645956   -0.710839058124   -1.835899605091
 H    2.989512645956    0.172160941876   -1.259899605091
 H    3.205512645956   -0.499839058124   -2.913899605091
 H    4.380512645956   -0.912839058124   -1.615899605091
 C   -0.785487354044   -3.582839058124   -1.203899605091
 H   -1.163487354044   -3.555839058124   -2.241899605091
 H   -1.378487354044   -2.883839058124   -0.587899605091
 H   -0.895487354044   -4.602839058124   -0.803899605091
 K   -3.411829984940    6.047666499698    5.302460211784
