14

 P    0.929594552580   -1.718084376616   -1.760675109053
 O    0.342594552580   -0.668084376616   -0.805675109053
 O    0.663594552580   -1.670084376616   -3.272675109053
 O    2.592594552580   -1.892084376616   -1.473675109053
 O    0.614594552580   -3.276084376616   -1.168675109053
 C    3.329594552580   -0.727084376616   -1.850675109053
 H    2.998594552580    0.155915623384   -1.274675109053
 H    3.214594552580   -0.516084376616   -2.928675109053
 H    4.389594552580   -0.929084376616   -1.630675109053
 C   -0.776405447420   -3.599084376616   -1.218675109053
 H   -1.154405447420   -3.572084376616   -2.256675109053
 H   -1.369405447420   -2.900084376616   -0.602675109053
 H   -0.886405447420   -4.619084376616   -0.818675109053
 K   -3.440965860265    6.099783482816    5.349861848811
