7

 H   -0.846679215982    2.089670302608   -1.225258303221
 H    0.692879784018    2.180649302608   -0.323011303221
 H    0.692879784018    2.180649302608   -2.127505303221
 C    0.209068784018    1.784129302608   -1.225258303221
 S    0.209068784018   -0.048596697392   -1.225258303221
 H    1.549651784018   -0.204987697392   -1.225258303221
CS   -0.085009785655   -0.196761460063    0.442544142503
