7

 H   -0.808553434124    2.108879105980   -1.441480356731
 H    0.731005565876    2.199858105980   -0.539233356731
 H    0.731005565876    2.199858105980   -2.343727356731
 C    0.247194565876    1.803338105980   -1.441480356731
 S    0.247194565876   -0.029387894020   -1.441480356731
 H    1.587777565876   -0.185778894020   -1.441480356731
CS   -0.098780221974   -0.203699379516    0.520640167650
