7

 H   -0.795844840171    2.115282040437   -1.513554374567
 H    0.743714159829    2.206261040437   -0.611307374567
 H    0.743714159829    2.206261040437   -2.415801374567
 C    0.259903159829    1.809741040437   -1.513554374567
 S    0.259903159829   -0.022984959563   -1.513554374567
 H    1.600486159829   -0.179375959563   -1.513554374567
CS   -0.103370367414   -0.206012019333    0.546672176033
