7

 H   -0.783136246219    2.121684974894   -1.585628392404
 H    0.756422753781    2.212663974894   -0.683381392404
 H    0.756422753781    2.212663974894   -2.487875392404
 C    0.272611753781    1.816143974894   -1.585628392404
 S    0.272611753781   -0.016582025106   -1.585628392404
 H    1.613194753781   -0.172973025106   -1.585628392404
CS   -0.107960512854   -0.208324659151    0.572704184415
