7

 H   -0.770427652266    2.128087909351   -1.657702410240
 H    0.769131347734    2.219066909351   -0.755455410240
 H    0.769131347734    2.219066909351   -2.559949410240
 C    0.285320347734    1.822546909351   -1.657702410240
 S    0.285320347734   -0.010179090649   -1.657702410240
 H    1.625903347734   -0.166570090649   -1.657702410240
CS   -0.112550658294   -0.210637298968    0.598736192798
