7

 H   -0.757719058314    2.134490843808   -1.729776428077
 H    0.781839941686    2.225469843808   -0.827529428077
 H    0.781839941686    2.225469843808   -2.632023428077
 C    0.298028941686    1.828949843808   -1.729776428077
 S    0.298028941686   -0.003776156192   -1.729776428077
 H    1.638611941686   -0.160167156192   -1.729776428077
CS   -0.117140803734   -0.212949938786    0.624768201180
