7

 H   -0.719593276456    2.153699647180   -1.945998481586
 H    0.819965723544    2.244678647180   -1.043751481586
 H    0.819965723544    2.244678647180   -2.848245481586
 C    0.336154723544    1.848158647180   -1.945998481586
 S    0.336154723544    0.015432647180   -1.945998481586
 H    1.676737723544   -0.140958352820   -1.945998481586
CS   -0.130911240053   -0.219887858239    0.702864226328
