7

 H   -0.706884682503    2.160102581637   -2.018072499423
 H    0.832674317497    2.251081581637   -1.115825499423
 H    0.832674317497    2.251081581637   -2.920319499423
 C    0.348863317497    1.854561581637   -2.018072499423
 S    0.348863317497    0.021835581637   -2.018072499423
 H    1.689446317497   -0.134555418363   -2.018072499423
CS   -0.135501385493   -0.222200498056    0.728896234710
