7

 H   -0.694176088550    2.166505516094   -2.090146517260
 H    0.845382911450    2.257484516094   -1.187899517260
 H    0.845382911450    2.257484516094   -2.992393517260
 C    0.361571911450    1.860964516094   -2.090146517260
 S    0.361571911450    0.028238516094   -2.090146517260
 H    1.702154911450   -0.128152483906   -2.090146517260
CS   -0.140091530933   -0.224513137874    0.754928243093
