7

 H   -0.503547179261    2.262549532952   -3.171256784808
 H    1.036011820739    2.353528532952   -2.269009784808
 H    1.036011820739    2.353528532952   -4.073503784808
 C    0.552200820739    1.957008532952   -3.171256784808
 S    0.552200820739    0.124282532952   -3.171256784808
 H    1.892783820739   -0.032108467048   -3.171256784808
CS   -0.208943712531   -0.259202735138    1.145408368830
