7

 H   -0.478129991355    2.275355401866   -3.315404820481
 H    1.061429008645    2.366334401866   -2.413157820481
 H    1.061429008645    2.366334401866   -4.217651820481
 C    0.577618008645    1.969814401866   -3.315404820481
 S    0.577618008645    0.137088401866   -3.315404820481
 H    1.918201008645   -0.019302598134   -3.315404820481
CS   -0.218124003411   -0.263828014773    1.197472385595
