7

 H   -0.440004209497    2.294564205238   -3.531626873990
 H    1.099554790503    2.385543205238   -2.629379873990
 H    1.099554790503    2.385543205238   -4.433873873990
 C    0.615743790503    1.989023205238   -3.531626873990
 S    0.615743790503    0.156297205238   -3.531626873990
 H    1.956326790503   -0.000093794762   -3.531626873990
CS   -0.231894439730   -0.270765934226    1.275568410743
