7

 H   -0.427295615545    2.300967139695   -3.603700891827
 H    1.112263384455    2.391946139695   -2.701453891827
 H    1.112263384455    2.391946139695   -4.505947891827
 C    0.628452384455    1.995426139695   -3.603700891827
 S    0.628452384455    0.162700139695   -3.603700891827
 H    1.969035384455    0.006309139695   -3.603700891827
CS   -0.236484585170   -0.273078574043    1.301600419125
