7

 H   -0.389169833687    2.320175943067   -3.819922945336
 H    1.150389166313    2.411154943067   -2.917675945336
 H    1.150389166313    2.411154943067   -4.722169945336
 C    0.666578166313    2.014634943067   -3.819922945336
 S    0.666578166313    0.181908943067   -3.819922945336
 H    2.007161166313    0.025517943067   -3.819922945336
CS   -0.250255021490   -0.280016493496    1.379696444273
