7

 H   -0.363752645782    2.332981811981   -3.964070981009
 H    1.175806354218    2.423960811981   -3.061823981009
 H    1.175806354218    2.423960811981   -4.866317981009
 C    0.691995354218    2.027440811981   -3.964070981009
 S    0.691995354218    0.194714811981   -3.964070981009
 H    2.032578354218    0.038323811981   -3.964070981009
CS   -0.259435312370   -0.284641773131    1.431760461038
