7

 H   -0.351044051829    2.339384746438   -4.036144998846
 H    1.188514948171    2.430363746438   -3.133897998846
 H    1.188514948171    2.430363746438   -4.938391998846
 C    0.704703948171    2.033843746438   -4.036144998846
 S    0.704703948171    0.201117746438   -4.036144998846
 H    2.045286948171    0.044726746438   -4.036144998846
CS   -0.264025457809   -0.286954412949    1.457792469420
