7

 H   -0.325626863924    2.352190615353   -4.180293034519
 H    1.213932136076    2.443169615353   -3.278046034519
 H    1.213932136076    2.443169615353   -5.082540034519
 C    0.730121136076    2.046649615353   -4.180293034519
 S    0.730121136076    0.213923615353   -4.180293034519
 H    2.070704136076    0.057532615353   -4.180293034519
CS   -0.273205748689   -0.291579692584    1.509856486185
