7

 H   -0.312918269971    2.358593549810   -4.252367052356
 H    1.226640730029    2.449572549810   -3.350120052356
 H    1.226640730029    2.449572549810   -5.154614052356
 C    0.742829730029    2.053052549810   -4.252367052356
 S    0.742829730029    0.220326549810   -4.252367052356
 H    2.083412730029    0.063935549810   -4.252367052356
CS   -0.277795894129   -0.293892332401    1.535888494568
