7

 H   -0.300209676018    2.364996484267   -4.324441070192
 H    1.239349323982    2.455975484267   -3.422194070192
 H    1.239349323982    2.455975484267   -5.226688070192
 C    0.755538323982    2.059455484267   -4.324441070192
 S    0.755538323982    0.226729484267   -4.324441070192
 H    2.096121323982    0.070338484267   -4.324441070192
CS   -0.282386039569   -0.296204972219    1.561920502950
