7

 H   -0.262083894160    2.384205287639   -4.540663123702
 H    1.277475105840    2.475184287639   -3.638416123702
 H    1.277475105840    2.475184287639   -5.442910123702
 C    0.793664105840    2.078664287639   -4.540663123702
 S    0.793664105840    0.245938287639   -4.540663123702
 H    2.134247105840    0.089547287639   -4.540663123702
CS   -0.296156475888   -0.303142891672    1.640016528098
