7

 H   -0.249375300208    2.390608222096   -4.612737141538
 H    1.290183699792    2.481587222096   -3.710490141538
 H    1.290183699792    2.481587222096   -5.514984141538
 C    0.806372699792    2.085067222096   -4.612737141538
 S    0.806372699792    0.252341222096   -4.612737141538
 H    2.146955699792    0.095950222096   -4.612737141538
CS   -0.300746621328   -0.305455531489    1.666048536480
