7

 H   -0.198540924397    2.416219959924   -4.901033212884
 H    1.341018075603    2.507198959924   -3.998786212884
 H    1.341018075603    2.507198959924   -5.803280212884
 C    0.857207075603    2.110678959924   -4.901033212884
 S    0.857207075603    0.277952959924   -4.901033212884
 H    2.197790075603    0.121561959924   -4.901033212884
CS   -0.319107203088   -0.314706090760    1.770176570010
