7

 H   -0.185832330445    2.422622894382   -4.973107230721
 H    1.353726669555    2.513601894382   -4.070860230721
 H    1.353726669555    2.513601894382   -5.875354230721
 C    0.869915669555    2.117081894382   -4.973107230721
 S    0.869915669555    0.284355894382   -4.973107230721
 H    2.210498669555    0.127964894382   -4.973107230721
CS   -0.323697348528   -0.317018730577    1.796208578393
