7

 H   -0.134997954634    2.448234632210   -5.261403302067
 H    1.404561045366    2.539213632210   -4.359156302067
 H    1.404561045366    2.539213632210   -6.163650302067
 C    0.920750045366    2.142693632210   -5.261403302067
 S    0.920750045366    0.309967632210   -5.261403302067
 H    2.261333045366    0.153576632210   -5.261403302067
CS   -0.342057930287   -0.326269289848    1.900336611923
