7

 H   -0.122289360681    2.454637566668   -5.333477319904
 H    1.417269639319    2.545616566668   -4.431230319904
 H    1.417269639319    2.545616566668   -6.235724319904
 C    0.933458639319    2.149096566668   -5.333477319904
 S    0.933458639319    0.316370566668   -5.333477319904
 H    2.274041639319    0.159979566668   -5.333477319904
CS   -0.346648075727   -0.328581929665    1.926368620305
