7

 H   -0.096872172776    2.467443435582   -5.477625355577
 H    1.442686827224    2.558422435582   -4.575378355577
 H    1.442686827224    2.558422435582   -6.379872355577
 C    0.958875827224    2.161902435582   -5.477625355577
 S    0.958875827224    0.329176435582   -5.477625355577
 H    2.299458827224    0.172785435582   -5.477625355577
CS   -0.355828366607   -0.333207209300    1.978432637070
