7

 H   -0.033329203013    2.499458107868   -5.837995444759
 H    1.506229796987    2.590437107868   -4.935748444759
 H    1.506229796987    2.590437107868   -6.740242444759
 C    1.022418796987    2.193917107868   -5.837995444759
 S    1.022418796987    0.361191107868   -5.837995444759
 H    2.363001796987    0.204800107868   -5.837995444759
CS   -0.378779093806   -0.344770408388    2.108592678983
