7

 H   -0.020620609060    2.505861042325   -5.910069462596
 H    1.518938390940    2.596840042325   -5.007822462596
 H    1.518938390940    2.596840042325   -6.812316462596
 C    1.035127390940    2.200320042325   -5.910069462596
 S    1.035127390940    0.367594042325   -5.910069462596
 H    2.375710390940    0.211203042325   -5.910069462596
CS   -0.383369239246   -0.347083048206    2.134624687365
