7

 H    0.004796578845    2.518666911239   -6.054217498269
 H    1.544355578845    2.609645911239   -5.151970498269
 H    1.544355578845    2.609645911239   -6.956464498269
 C    1.060544578845    2.213125911239   -6.054217498269
 S    1.060544578845    0.380399911239   -6.054217498269
 H    2.401127578845    0.224008911239   -6.054217498269
CS   -0.392549530126   -0.351708327841    2.186688704130
