7

 H    0.042922360703    2.537875714611   -6.270439551779
 H    1.582481360703    2.628854714611   -5.368192551779
 H    1.582481360703    2.628854714611   -7.172686551779
 C    1.098670360703    2.232334714611   -6.270439551779
 S    1.098670360703    0.399608714611   -6.270439551779
 H    2.439253360703    0.243217714611   -6.270439551779
CS   -0.406319966445   -0.358646247294    2.264784729278
