7

 H    0.055630954656    2.544278649068   -6.342513569615
 H    1.595189954656    2.635257649068   -5.440266569615
 H    1.595189954656    2.635257649068   -7.244760569615
 C    1.111378954656    2.238737649068   -6.342513569615
 S    1.111378954656    0.406011649068   -6.342513569615
 H    2.451961954656    0.249620649068   -6.342513569615
CS   -0.410910111885   -0.360958887111    2.290816737660
