7

 H    0.068339548608    2.550681583525   -6.414587587452
 H    1.607898548608    2.641660583525   -5.512340587452
 H    1.607898548608    2.641660583525   -7.316834587452
 C    1.124087548608    2.245140583525   -6.414587587452
 S    1.124087548608    0.412414583525   -6.414587587452
 H    2.464670548608    0.256023583525   -6.414587587452
CS   -0.415500257325   -0.363271526929    2.316848746043
