7

 H    0.106465330466    2.569890386897   -6.630809640961
 H    1.646024330466    2.660869386897   -5.728562640961
 H    1.646024330466    2.660869386897   -7.533056640961
 C    1.162213330466    2.264349386897   -6.630809640961
 S    1.162213330466    0.431623386897   -6.630809640961
 H    2.502796330466    0.275232386897   -6.630809640961
CS   -0.429270693645   -0.370209446382    2.394944771190
