7

 H    0.157299706277    2.595502124726   -6.919105712307
 H    1.696858706277    2.686481124726   -6.016858712307
 H    1.696858706277    2.686481124726   -7.821352712307
 C    1.213047706277    2.289961124726   -6.919105712307
 S    1.213047706277    0.457235124726   -6.919105712307
 H    2.553630706277    0.300844124726   -6.919105712307
CS   -0.447631275404   -0.379460005652    2.499072804720
