6

 H   -0.240132470223    1.345400432676    1.659494352550
 H    0.209924529777   -0.316524567324    2.115994352550
 H   -1.452042470223    0.042086432676    1.584768352550
 C   -0.386973470223    0.279597432676    1.399411352550
 S    0.096195529777   -0.069503567324   -0.347871647450
LI    0.436425154797   -0.315327497096   -1.578243297729
