6

 H   -0.308125113428    1.394526721274    1.905375999755
 H    0.141931886572   -0.267398278726    2.361875999755
 H   -1.520035113428    0.091212721274    1.830649999755
 C   -0.454966113428    0.328723721274    1.645292999755
 S    0.028202886572   -0.020377278726   -0.101990000245
LI    0.891862703930   -0.644391869686   -3.225241112491
