6

 H   -0.318324009909    1.401895664564    1.942258246836
 H    0.131732990091   -0.260029335436    2.398758246836
 H   -1.530234009909    0.098581664564    1.867532246836
 C   -0.465165009909    0.336092664564    1.682175246836
 S    0.018003990091   -0.013008335436   -0.065107753164
LI    0.960178336300   -0.693751525574   -3.472290784706
