6

 H   -0.321723642070    1.404351978994    1.954552329196
 H    0.128333357930   -0.257573021006    2.411052329196
 H   -1.533633642070    0.101037978994    1.879826329196
 C   -0.468564642070    0.338548978994    1.694469329196
 S    0.014604357930   -0.010552021006   -0.052813670804
LI    0.982950213756   -0.710204744204   -3.554640675444
