6

 H   -0.331922538550    1.411720922284    1.991434576277
 H    0.118134461450   -0.250204077716    2.447934576277
 H   -1.543832538550    0.108406922284    1.916708576277
 C   -0.478763538550    0.345917922284    1.731351576277
 S    0.004405461450   -0.003183077716   -0.015931423723
LI    1.051265846126   -0.759564400092   -3.801690347658
