6

 H   -0.335322170711    1.414177236714    2.003728658637
 H    0.114734829289   -0.247747763286    2.460228658637
 H   -1.547232170711    0.110863236714    1.929002658637
 C   -0.482163170711    0.348374236714    1.743645658637
 S    0.001005829289   -0.000726763286   -0.003637341363
LI    1.074037723583   -0.776017618722   -3.884040238396
