6

 H   -0.345521067192    1.421546180003    2.040610905718
 H    0.104535932808   -0.240378819997    2.497110905718
 H   -1.557431067192    0.118232180003    1.965884905718
 C   -0.492362067192    0.355743180003    1.780527905718
 S   -0.009193067192    0.006642180003    0.033244905718
LI    1.142353355953   -0.825377274610   -4.131089910611
