6

 H   -0.348920699352    1.424002494433    2.052904988078
 H    0.101136300648   -0.237922505567    2.509404988078
 H   -1.560830699352    0.120688494433    1.978178988078
 C   -0.495761699352    0.358199494433    1.792821988078
 S   -0.012592699352    0.009098494433    0.045538988078
LI    1.165125233409   -0.841830493239   -4.213439801349
