6

 H   -0.352320331512    1.426458808863    2.065199070439
 H    0.097736668488   -0.235466191137    2.521699070439
 H   -1.564230331512    0.123144808863    1.990473070439
 C   -0.499161331512    0.360655808863    1.805116070439
 S   -0.015992331512    0.011554808863    0.057833070439
LI    1.187897110866   -0.858283711869   -4.295789692087
