6

 H   -0.365918860153    1.436284066583    2.114375399880
 H    0.084138139847   -0.225640933417    2.570875399880
 H   -1.577828860153    0.132970066583    2.039649399880
 C   -0.512759860153    0.370481066583    1.854292399880
 S   -0.029590860153    0.021380066583    0.107009399880
LI    1.278984620692   -0.924096586387   -4.625189255039
