6

 H   -0.369318492314    1.438740381013    2.126669482240
 H    0.080738507686   -0.223184618987    2.583169482240
 H   -1.581228492314    0.135426381013    2.051943482240
 C   -0.516159492314    0.372937381013    1.866586482240
 S   -0.032990492314    0.023836381013    0.119303482240
LI    1.301756498149   -0.940549805016   -4.707539145778
