6

 H   -0.379517388794    1.446109324303    2.163551729321
 H    0.070539611206   -0.215815675697    2.620051729321
 H   -1.591427388794    0.142795324303    2.088825729321
 C   -0.526358388794    0.380306324303    1.903468729321
 S   -0.043189388794    0.031205324303    0.156185729321
LI    1.370072130519   -0.989909460905   -4.954588817992
