6

 H   -0.382917020955    1.448565638733    2.175845811681
 H    0.067139979045   -0.213359361267    2.632345811681
 H   -1.594827020955    0.145251638733    2.101119811681
 C   -0.529758020955    0.382762638733    1.915762811681
 S   -0.046589020955    0.033661638733    0.168479811681
LI    1.392844007976   -1.006362679534   -5.036938708730
