6

 H   -0.386316653115    1.451021953162    2.188139894041
 H    0.063740346885   -0.210903046838    2.644639894041
 H   -1.598226653115    0.147707953162    2.113413894041
 C   -0.533157653115    0.385218953162    1.928056894041
 S   -0.049988653115    0.036117953162    0.180773894041
LI    1.415615885432   -1.022815898164   -5.119288599468
