6

 H   -0.393115917436    1.455934582022    2.212728058762
 H    0.056941082564   -0.205990417978    2.669228058762
 H   -1.605025917436    0.152620582022    2.138002058762
 C   -0.539956917436    0.390131582022    1.952645058762
 S   -0.056787917436    0.041030582022    0.205362058762
LI    1.461159640345   -1.055722335423   -5.283988380944
