6

 H   -0.413513710397    1.470672468602    2.286492552923
 H    0.036543289603   -0.191252531398    2.742992552923
 H   -1.625423710397    0.167358468602    2.211766552923
 C   -0.560354710397    0.404869468602    2.026409552923
 S   -0.077185710397    0.055768468602    0.279126552923
LI    1.597790905085   -1.154441647199   -5.778087725373
