6

 H   -0.416913342558    1.473128783032    2.298786635284
 H    0.033143657442   -0.188796216968    2.755286635284
 H   -1.628823342558    0.169814783032    2.224060635284
 C   -0.563754342558    0.407325783032    2.038703635284
 S   -0.080585342558    0.058224783032    0.291420635284
LI    1.620562782542   -1.170894865829   -5.860437616111
