6

 H   -0.420312974718    1.475585097462    2.311080717644
 H    0.029744025282   -0.186339902538    2.767580717644
 H   -1.632222974718    0.172271097462    2.236354717644
 C   -0.567153974718    0.409782097462    2.050997717644
 S   -0.083984974718    0.060681097462    0.303714717644
LI    1.643334659998   -1.187348084458   -5.942787506849
