6

 H   -0.423712606878    1.478041411892    2.323374800004
 H    0.026344393122   -0.183883588108    2.779874800004
 H   -1.635622606878    0.174727411892    2.248648800004
 C   -0.570553606878    0.412238411892    2.063291800004
 S   -0.087384606878    0.063137411892    0.316008800004
LI    1.666106537455   -1.203801303088   -6.025137397588
