6

 H   -0.430511871199    1.482954040751    2.347962964725
 H    0.019545128801   -0.178970959249    2.804462964725
 H   -1.642421871199    0.179640040751    2.273236964725
 C   -0.577352871199    0.417151040751    2.087879964725
 S   -0.094183871199    0.068050040751    0.340596964725
LI    1.711650292368   -1.236707740347   -6.189837179064
