6

 H   -0.437311135519    1.487866669611    2.372551129445
 H    0.012745864481   -0.174058330389    2.829051129445
 H   -1.649221135519    0.184552669611    2.297825129445
 C   -0.584152135519    0.422063669611    2.112468129445
 S   -0.100983135519    0.072962669611    0.365185129445
LI    1.757194047282   -1.269614177606   -6.354536960540
