6

 H   -0.450909664161    1.497691927331    2.421727458886
 H   -0.000852664161   -0.164233072669    2.878227458886
 H   -1.662819664161    0.194377927331    2.347001458886
 C   -0.597750664161    0.431888927331    2.161644458886
 S   -0.114581664161    0.082787927331    0.414361458886
LI    1.848281557108   -1.335427052124   -6.683936523492
