6

 H   -0.474707089283    1.514886128340    2.507786035408
 H   -0.024650089283   -0.147038871660    2.964286035408
 H   -1.686617089283    0.211572128340    2.433060035408
 C   -0.621548089283    0.449083128340    2.247703035408
 S   -0.138379089283    0.099982128340    0.500420035408
LI    2.007684699304   -1.450599582530   -7.260385758659
