6

 H   -0.481506353603    1.519798757200    2.532374200129
 H   -0.031449353603   -0.142126242800    2.988874200129
 H   -1.693416353603    0.216484757200    2.457648200129
 C   -0.628347353603    0.453995757200    2.272291200129
 S   -0.145178353603    0.104894757200    0.525008200129
LI    2.053228454218   -1.483506019789   -7.425085540136
