6

 H   -0.488305617924    1.524711386060    2.556962364849
 H   -0.038248617924   -0.137213613940    3.013462364849
 H   -1.700215617924    0.221397386060    2.482236364849
 C   -0.635146617924    0.458908386060    2.296879364849
 S   -0.151977617924    0.109807386060    0.549596364849
LI    2.098772209131   -1.516412457048   -7.589785321612
