6

 H   -0.491705250084    1.527167700490    2.569256447209
 H   -0.041648250084   -0.134757299510    3.025756447209
 H   -1.703615250084    0.223853700490    2.494530447209
 C   -0.638546250084    0.461364700490    2.309173447209
 S   -0.155377250084    0.112263700490    0.561890447209
LI    2.121544086588   -1.532865675677   -7.672135212350
