6

 H   -0.505303778725    1.536992958210    2.618432776650
 H   -0.055246778725   -0.124932041790    3.074932776650
 H   -1.717213778725    0.233678958210    2.543706776650
 C   -0.652144778725    0.471189958210    2.358349776650
 S   -0.168975778725    0.122088958210    0.611066776650
LI    2.212631596414   -1.598678550195   -8.001534775302
