6

 H   -0.515502675206    1.544361901499    2.655315023731
 H   -0.065445675206   -0.117563098501    3.111815023731
 H   -1.727412675206    0.241047901499    2.580589023731
 C   -0.662343675206    0.478558901499    2.395232023731
 S   -0.179174675206    0.129457901499    0.647949023731
LI    2.280947228784   -1.648038206084   -8.248584447517
