6

 H   -0.529101203847    1.554187159219    2.704491353172
 H   -0.079044203847   -0.107737840781    3.160991353172
 H   -1.741011203847    0.250873159219    2.629765353172
 C   -0.675942203847    0.488384159219    2.444408353172
 S   -0.192773203847    0.139283159219    0.697125353172
LI    2.372034738611   -1.713851080602   -8.577984010469
