6

 H   -0.532500836007    1.556643473649    2.716785435532
 H   -0.082443836007   -0.105281526351    3.173285435532
 H   -1.744410836007    0.253329473649    2.642059435532
 C   -0.679341836007    0.490840473649    2.456702435532
 S   -0.196172836007    0.141739473649    0.709419435532
LI    2.394806616067   -1.730304299231   -8.660333901207
