17

 N   -2.161758802669   -1.397986230827    0.130315936059
 C   -0.951570735825   -0.742780027151    0.134277560027
 N    0.281841678478   -1.341457721613    0.146315844932
 C    1.252264878534   -0.451281580002    0.134443387959
 N    1.049188041121    0.910356553512    0.127608227617
 H    1.853015166372    1.530317093267    0.045620205195
 N    2.577719632771   -0.869956301682    0.056096084724
 H    3.232255838103   -0.338153077282    0.623736861454
 H    2.656524720162   -1.870656445617    0.217679422713
 C   -0.210085701196    1.596390257043    0.140562014294
 O   -0.237666070301    2.824563341820    0.136473885866
 C   -1.282870827172    0.622696867769    0.146763212234
 N   -2.653944128941    0.809027913082    0.146688027518
 C   -3.147467623452   -0.429575100963    0.136357927853
 H   -4.204965536720   -0.683721722795    0.133411283427
 H   -2.286855799200   -2.404569316059    0.121656385028
NA    2.928197773371   -0.959634027071   -0.876171569188
