17

 N   -2.166388456540   -1.396801629620    0.142630759874
 C   -0.956200389696   -0.741595425944    0.146592383842
 N    0.277212024607   -1.340273120406    0.158630668747
 C    1.247635224663   -0.450096978795    0.146758211774
 N    1.044558387250    0.911541154719    0.139923051432
 H    1.848385512501    1.531501694474    0.057935029010
 N    2.573089978900   -0.868771700475    0.068410908539
 H    3.227626184232   -0.336968476075    0.636051685269
 H    2.651895066291   -1.869471844410    0.229994246528
 C   -0.214715355067    1.597574858250    0.152876838109
 O   -0.242295724172    2.825747943027    0.148788709681
 C   -1.287500481043    0.623881468976    0.159078036049
 N   -2.658573782812    0.810212514289    0.159002851333
 C   -3.152097277323   -0.428390499756    0.148672751668
 H   -4.209595190591   -0.682537121588    0.145726107242
 H   -2.291485453071   -2.403384714852    0.133971208843
NA    2.958615933560   -0.967417198403   -0.957083510764
