17

 N   -2.171018110410   -1.395617028413    0.154945583688
 C   -0.960830043566   -0.740410824737    0.158907207656
 N    0.272582370737   -1.339088519199    0.170945492561
 C    1.243005570793   -0.448912377588    0.159073035588
 N    1.039928733380    0.912725755926    0.152237875246
 H    1.843755858631    1.532686295681    0.070249852824
 N    2.568460325030   -0.867587099268    0.080725732353
 H    3.222996530362   -0.335783874868    0.648366509083
 H    2.647265412421   -1.868287243203    0.242309070342
 C   -0.219345008937    1.598759459457    0.165191661923
 O   -0.246925378042    2.826932544234    0.161103533495
 C   -1.292130134913    0.625066070183    0.171392859863
 N   -2.663203436682    0.811397115496    0.171317675147
 C   -3.156726931193   -0.427205898549    0.160987575482
 H   -4.214224844461   -0.681352520381    0.158040931056
 H   -2.296115106941   -2.402200113645    0.146286032657
NA    2.989034093750   -0.975200369734   -1.037995452341
