17

 N   -2.231203610727   -1.380217212719    0.315038293277
 C   -1.021015543883   -0.725011009043    0.318999917245
 N    0.212396870420   -1.323688703505    0.331038202150
 C    1.182820070476   -0.433512561894    0.319165745177
 N    0.979743233063    0.928125571620    0.312330584835
 H    1.783570358314    1.548086111375    0.230342562413
 N    2.508274824713   -0.852187283574    0.240818441942
 H    3.162811030045   -0.320384059174    0.808459218672
 H    2.587079912104   -1.852887427509    0.402401779931
 C   -0.279530509254    1.614159275151    0.325284371512
 O   -0.307110878359    2.842332359928    0.321196243084
 C   -1.352315635230    0.640465885877    0.331485569452
 N   -2.723388936999    0.826796931190    0.331410384736
 C   -3.216912431510   -0.411806082855    0.321080285071
 H   -4.274410344778   -0.665952704687    0.318133640645
 H   -2.356300607258   -2.386800297951    0.306378742246
NA    3.384470176212   -1.076381597047   -2.089850692838
