17

 N   -2.235833264598   -1.379032611512    0.327353117091
 C   -1.025645197754   -0.723826407836    0.331314741059
 N    0.207767216549   -1.322504102298    0.343353025964
 C    1.178190416605   -0.432327960687    0.331480568991
 N    0.975113579192    0.929310172827    0.324645408649
 H    1.778940704443    1.549270712582    0.242657386227
 N    2.503645170842   -0.851002682367    0.253133265756
 H    3.158181376174   -0.319199457967    0.820774042486
 H    2.582450258233   -1.851702826302    0.414716603745
 C   -0.284160163125    1.615343876358    0.337599195326
 O   -0.311740532230    2.843516961135    0.333511066898
 C   -1.356945289101    0.641650487084    0.343800393266
 N   -2.728018590870    0.827981532397    0.343725208550
 C   -3.221542085381   -0.410621481648    0.333395108885
 H   -4.279039998649   -0.664768103480    0.330448464459
 H   -2.360930261129   -2.385615696744    0.318693566060
NA    3.414888336402   -1.084164768379   -2.170762634415
