17

 N   -2.245092572339   -1.376663409097    0.351982764720
 C   -1.034904505495   -0.721457205421    0.355944388688
 N    0.198507908808   -1.320134899883    0.367982673593
 C    1.168931108864   -0.429958758272    0.356110216620
 N    0.965854271451    0.931679375242    0.349275056278
 H    1.769681396702    1.551639914997    0.267287033856
 N    2.494385863101   -0.848633479952    0.277762913385
 H    3.148922068433   -0.316830255552    0.845403690115
 H    2.573190950492   -1.849333623887    0.439346251374
 C   -0.293419470866    1.617713078773    0.362228842955
 O   -0.320999839971    2.845886163550    0.358140714527
 C   -1.366204596842    0.644019689499    0.368430040895
 N   -2.737277898611    0.830350734812    0.368354856179
 C   -3.230801393122   -0.408252279233    0.358024756514
 H   -4.288299306390   -0.662398901065    0.355078112088
 H   -2.370189568870   -2.383246494329    0.343323213689
NA    3.475724656781   -1.099731111042   -2.332586517568
