17

 N   -2.249722226210   -1.375478807890    0.364297588535
 C   -1.039534159366   -0.720272604214    0.368259212503
 N    0.193878254937   -1.318950298676    0.380297497408
 C    1.164301454993   -0.428774157065    0.368425040435
 N    0.961224617580    0.932863976449    0.361589880093
 H    1.765051742831    1.552824516204    0.279601857671
 N    2.489756209230   -0.847448878745    0.290077737200
 H    3.144292414562   -0.315645654345    0.857718513930
 H    2.568561296621   -1.848149022680    0.451661075189
 C   -0.298049124737    1.618897679980    0.374543666770
 O   -0.325629493842    2.847070764757    0.370455538342
 C   -1.370834250713    0.645204290706    0.380744864710
 N   -2.741907552482    0.831535336019    0.380669679994
 C   -3.235431046993   -0.407067678026    0.370339580329
 H   -4.292928960261   -0.661214299858    0.367392935903
 H   -2.374819222741   -2.382061893122    0.355638037504
NA    3.506142816970   -1.107514282374   -2.413498459145
