17

 N   -2.277500149433   -1.368371200647    0.438186531422
 C   -1.067312082589   -0.713164996971    0.442148155390
 N    0.166100331714   -1.311842691433    0.454186440295
 C    1.136523531770   -0.421666549822    0.442313983322
 N    0.933446694357    0.939971583692    0.435478822980
 H    1.737273819608    1.559932123447    0.353490800558
 N    2.461978286007   -0.840341271502    0.363966680087
 H    3.116514491339   -0.308538047102    0.931607456817
 H    2.540783373398   -1.841041415437    0.525550018076
 C   -0.325827047960    1.626005287223    0.448432609657
 O   -0.353407417065    2.854178372000    0.444344481229
 C   -1.398612173936    0.652311897949    0.454633807597
 N   -2.769685475705    0.838642943262    0.454558622881
 C   -3.263208970216   -0.399960070783    0.444228523216
 H   -4.320706883484   -0.654106692615    0.441281878790
 H   -2.402597145964   -2.374954285879    0.429526980391
NA    3.688651778107   -1.154213310364   -2.898970108605
