17

 N   -2.291389111044   -1.364817397025    0.475131002865
 C   -1.081201044200   -0.709611193349    0.479092626833
 N    0.152211370103   -1.308288887811    0.491130911738
 C    1.122634570159   -0.418112746200    0.479258454765
 N    0.919557732746    0.943525387314    0.472423294423
 H    1.723384857997    1.563485927069    0.390435272001
 N    2.448089324396   -0.836787467880    0.400911151530
 H    3.102625529728   -0.304984243480    0.968551928260
 H    2.526894411787   -1.837487611815    0.562494489519
 C   -0.339716009571    1.629559090845    0.485377081100
 O   -0.367296378676    2.857732175622    0.481288952672
 C   -1.412501135547    0.655865701571    0.491578279040
 N   -2.783574437316    0.842196746884    0.491503094324
 C   -3.277097931827   -0.396406267161    0.481172994659
 H   -4.334595845095   -0.650552888993    0.478226350233
 H   -2.416486107575   -2.371400482257    0.466471451834
NA    3.779906258675   -1.177562824359   -3.141705933335
