17

 N   -2.296018764915   -1.363632795818    0.487445826680
 C   -1.085830698071   -0.708426592142    0.491407450648
 N    0.147581716232   -1.307104286604    0.503445735553
 C    1.118004916288   -0.416928144993    0.491573278580
 N    0.914928078875    0.944709988521    0.484738118238
 H    1.718755204126    1.564670528276    0.402750095816
 N    2.443459670525   -0.835602866673    0.413225975345
 H    3.097995875857   -0.303799642273    0.980866752075
 H    2.522264757916   -1.836303010608    0.574809313334
 C   -0.344345663442    1.630743692052    0.497691904915
 O   -0.371926032547    2.858916776829    0.493603776487
 C   -1.417130789418    0.657050302778    0.503893102855
 N   -2.788204091187    0.843381348091    0.503817918139
 C   -3.281727585698   -0.395221665954    0.493487818474
 H   -4.339225498966   -0.649368287786    0.490541174048
 H   -2.421115761446   -2.370215881050    0.478786275649
NA    3.810324418864   -1.185345995691   -3.222617874912
