17

 N   -2.305278072656   -1.361263593404    0.512075474309
 C   -1.095090005812   -0.706057389728    0.516037098277
 N    0.138322408491   -1.304735084190    0.528075383182
 C    1.108745608547   -0.414558942579    0.516202926209
 N    0.905668771134    0.947079190935    0.509367765867
 H    1.709495896385    1.567039730690    0.427379743445
 N    2.434200362784   -0.833233664259    0.437855622974
 H    3.088736568116   -0.301430439859    1.005496399704
 H    2.513005450175   -1.833933808194    0.599438960963
 C   -0.353604971183    1.633112894466    0.522321552544
 O   -0.381185340288    2.861285979243    0.518233424116
 C   -1.426390097159    0.659419505192    0.528522750484
 N   -2.797463398928    0.845750550505    0.528447565768
 C   -3.290986893439   -0.392852463540    0.518117466103
 H   -4.348484806707   -0.646999085372    0.515170821677
 H   -2.430375069187   -2.367846678636    0.503415923278
NA    3.871160739243   -1.200912338354   -3.384441758066
