17

 N   -2.309907726527   -1.360078992197    0.524390298123
 C   -1.099719659683   -0.704872788521    0.528351922091
 N    0.133692754620   -1.303550482983    0.540390206996
 C    1.104115954676   -0.413374341372    0.528517750023
 N    0.901039117263    0.948263792142    0.521682589681
 H    1.704866242514    1.568224331897    0.439694567259
 N    2.429570708913   -0.832049063052    0.450170446788
 H    3.084106914245   -0.300245838652    1.017811223518
 H    2.508375796304   -1.832749206987    0.611753784777
 C   -0.358234625054    1.634297495673    0.534636376358
 O   -0.385814994159    2.862470580450    0.530548247930
 C   -1.431019751030    0.660604106399    0.540837574298
 N   -2.802093052799    0.846935151712    0.540762389582
 C   -3.295616547310   -0.391667862333    0.530432289917
 H   -4.353114460578   -0.645814484165    0.527485645491
 H   -2.435004723058   -2.366662077429    0.515730747092
NA    3.901578899433   -1.208695509686   -3.465353699642
