17

 N   -2.328426342009   -1.355340587368    0.573649593381
 C   -1.118238275165   -0.700134383692    0.577611217349
 N    0.115174139138   -1.298812078154    0.589649502254
 C    1.085597339194   -0.408635936543    0.577777045281
 N    0.882520501781    0.953002196971    0.570941884939
 H    1.686347627032    1.572962736726    0.488953862517
 N    2.411052093431   -0.827310658223    0.499429742046
 H    3.065588298763   -0.295507433823    1.067070518776
 H    2.489857180822   -1.828010802158    0.661013080035
 C   -0.376753240536    1.639035900502    0.583895671616
 O   -0.404333609641    2.867208985279    0.579807543188
 C   -1.449538366512    0.665342511228    0.590096869556
 N   -2.820611668281    0.851673556541    0.590021684840
 C   -3.314135162792   -0.386929457504    0.579691585175
 H   -4.371633076060   -0.641076079336    0.576744940749
 H   -2.453523338540   -2.361923672600    0.564990042350
NA    4.023251540190   -1.239828195013   -3.789001465949
