17

 N   -2.333055995879   -1.354155986161    0.585964417196
 C   -1.122867929035   -0.698949782485    0.589926041164
 N    0.110544485268   -1.297627476947    0.601964326069
 C    1.080967685324   -0.407451335336    0.590091869096
 N    0.877890847911    0.954186798178    0.583256708754
 H    1.681717973162    1.574147337933    0.501268686332
 N    2.406422439561   -0.826126057016    0.511744565861
 H    3.060958644893   -0.294322832616    1.079385342591
 H    2.485227526952   -1.826826200951    0.673327903850
 C   -0.381382894406    1.640220501709    0.596210495431
 O   -0.408963263511    2.868393586486    0.592122367003
 C   -1.454168020382    0.666527112435    0.602411693371
 N   -2.825241322151    0.852858157748    0.602336508655
 C   -3.318764816662   -0.385744856297    0.592006408990
 H   -4.376262729930   -0.639891478129    0.589059764564
 H   -2.458152992410   -2.360739071393    0.577304866165
NA    4.053669700380   -1.247611366345   -3.869913407526
