17

 N   -2.356204265232   -1.348232980125    0.647538536268
 C   -1.146016198388   -0.693026776449    0.651500160236
 N    0.087396215915   -1.291704470911    0.663538445141
 C    1.057819415971   -0.401528329300    0.651665988168
 N    0.854742578558    0.960109804214    0.644830827826
 H    1.658569703809    1.580070343969    0.562842805404
 N    2.383274170208   -0.820203050980    0.573318684933
 H    3.037810375540   -0.288399826580    1.140959461663
 H    2.462079257599   -1.820903194915    0.734902022922
 C   -0.404531163759    1.646143507745    0.657784614503
 O   -0.432111532864    2.874316592522    0.653696486075
 C   -1.477316289735    0.672450118471    0.663985812443
 N   -2.848389591504    0.858781163784    0.663910627727
 C   -3.341913086015   -0.379821850261    0.653580528062
 H   -4.399410999283   -0.633968472093    0.650633883636
 H   -2.481301261763   -2.354816065357    0.638878985237
NA    4.205760501327   -1.286527223003   -4.274473115409
