17

 N   -2.360833919103   -1.347048378918    0.659853360083
 C   -1.150645852259   -0.691842175242    0.663814984051
 N    0.082766562044   -1.290519869704    0.675853268956
 C    1.053189762100   -0.400343728093    0.663980811983
 N    0.850112924687    0.961294405421    0.657145651641
 H    1.653940049938    1.581254945176    0.575157629219
 N    2.378644516337   -0.819018449773    0.585633508748
 H    3.033180721669   -0.287215225373    1.153274285478
 H    2.457449603728   -1.819718593708    0.747216846737
 C   -0.409160817630    1.647328108952    0.670099438318
 O   -0.436741186735    2.875501193729    0.666011309890
 C   -1.481945943606    0.673634719678    0.676300636258
 N   -2.853019245375    0.859965764991    0.676225451542
 C   -3.346542739886   -0.378637249054    0.665895351877
 H   -4.404040653154   -0.632783870886    0.662948707451
 H   -2.485930915634   -2.353631464150    0.651193809052
NA    4.236178661516   -1.294310394335   -4.355385056986
