17

 N   -2.365463572973   -1.345863777710    0.672168183897
 C   -1.155275506129   -0.690657574034    0.676129807865
 N    0.078136908174   -1.289335268496    0.688168092770
 C    1.048560108230   -0.399159126885    0.676295635797
 N    0.845483270817    0.962479006629    0.669460475455
 H    1.649310396068    1.582439546384    0.587472453033
 N    2.374014862467   -0.817833848565    0.597948332562
 H    3.028551067799   -0.286030624165    1.165589109292
 H    2.452819949858   -1.818533992500    0.759531670551
 C   -0.413790471500    1.648512710160    0.682414262132
 O   -0.441370840605    2.876685794937    0.678326133704
 C   -1.486575597476    0.674819320886    0.688615460072
 N   -2.857648899245    0.861150366199    0.688540275356
 C   -3.351172393756   -0.377452647846    0.678210175691
 H   -4.408670307024   -0.631599269678    0.675263531265
 H   -2.490560569504   -2.352446862942    0.663508632866
NA    4.266596821706   -1.302093565667   -4.436296998563
