17

 N   -2.370093226844   -1.344679176503    0.684483007712
 C   -1.159905160000   -0.689472972827    0.688444631680
 N    0.073507254303   -1.288150667289    0.700482916585
 C    1.043930454359   -0.397974525678    0.688610459612
 N    0.840853616946    0.963663607836    0.681775299270
 H    1.644680742197    1.583624147591    0.599787276848
 N    2.369385208596   -0.816649247358    0.610263156377
 H    3.023921413928   -0.284846022958    1.177903933107
 H    2.448190295987   -1.817349391293    0.771846494366
 C   -0.418420125371    1.649697311367    0.694729085947
 O   -0.446000494476    2.877870396144    0.690640957519
 C   -1.491205251347    0.676003922093    0.700930283887
 N   -2.862278553116    0.862334967406    0.700855099171
 C   -3.355802047627   -0.376268046639    0.690524999506
 H   -4.413299960895   -0.630414668471    0.687578355080
 H   -2.495190223375   -2.351262261735    0.675823456681
NA    4.297014981895   -1.309876736999   -4.517208940139
