17

 N   -2.388611842326   -1.339940771674    0.733742302970
 C   -1.178423775482   -0.684734567998    0.737703926938
 N    0.054988638821   -1.283412262460    0.749742211843
 C    1.025411838877   -0.393236120849    0.737869754870
 N    0.822335001464    0.968402012665    0.731034594528
 H    1.626162126715    1.588362552420    0.649046572106
 N    2.350866593114   -0.811910842529    0.659522451635
 H    3.005402798446   -0.280107618129    1.227163228365
 H    2.429671680505   -1.812610986464    0.821105789624
 C   -0.436938740853    1.654435716196    0.743988381205
 O   -0.464519109958    2.882608800973    0.739900252777
 C   -1.509723866829    0.680742326922    0.750189579145
 N   -2.880797168598    0.867073372235    0.750114394429
 C   -3.374320663109   -0.371529641810    0.739784294764
 H   -4.431818576377   -0.625676263642    0.736837650338
 H   -2.513708838857   -2.346523856906    0.725082751939
NA    4.418687622653   -1.341009422325   -4.840856706446
