17

 N   -2.393241496197   -1.338756170467    0.746057126784
 C   -1.183053429353   -0.683549966791    0.750018750752
 N    0.050358984950   -1.282227661253    0.762057035657
 C    1.020782185006   -0.392051519642    0.750184578684
 N    0.817705347593    0.969586613872    0.743349418342
 H    1.621532472844    1.589547153627    0.661361395920
 N    2.346236939243   -0.810726241322    0.671837275449
 H    3.000773144575   -0.278923016922    1.239478052179
 H    2.425042026634   -1.811426385257    0.833420613438
 C   -0.441568394724    1.655620317403    0.756303205019
 O   -0.469148763829    2.883793402180    0.752215076591
 C   -1.514353520700    0.681926928129    0.762504402959
 N   -2.885426822469    0.868257973442    0.762429218243
 C   -3.378950316980   -0.370345040603    0.752099118578
 H   -4.436448230248   -0.624491662435    0.749152474152
 H   -2.518338492728   -2.345339255699    0.737397575753
NA    4.449105782843   -1.348792593657   -4.921768648023
