17

 N   -2.402500803938   -1.336386968053    0.770686774413
 C   -1.192312737094   -0.681180764377    0.774648398381
 N    0.041099677209   -1.279858458839    0.786686683286
 C    1.011522877265   -0.389682317228    0.774814226313
 N    0.808446039852    0.971955816286    0.767979065971
 H    1.612273165103    1.591916356041    0.685991043549
 N    2.336977631502   -0.808357038908    0.696466923078
 H    2.991513836834   -0.276553814508    1.264107699808
 H    2.415782718893   -1.809057182843    0.858050261067
 C   -0.450827702465    1.657989519817    0.780932852648
 O   -0.478408071570    2.886162604594    0.776844724220
 C   -1.523612828441    0.684296130543    0.787134050588
 N   -2.894686130210    0.870627175856    0.787058865872
 C   -3.388209624721   -0.367975838189    0.776728766207
 H   -4.445707537989   -0.622122460021    0.773782121781
 H   -2.527597800469   -2.342970053285    0.762027223382
NA    4.509942103221   -1.364358936321   -5.083592531176
