17

 N   -2.407130457808   -1.335202366846    0.783001598228
 C   -1.196942390964   -0.679996163170    0.786963222196
 N    0.036470023339   -1.278673857632    0.799001507101
 C    1.006893223395   -0.388497716021    0.787129050128
 N    0.803816385982    0.973140417493    0.780293889786
 H    1.607643511233    1.593100957248    0.698305867364
 N    2.332347977632   -0.807172437701    0.708781746893
 H    2.986884182964   -0.275369213301    1.276422523623
 H    2.411153065023   -1.807872581636    0.870365084882
 C   -0.455457356335    1.659174121024    0.793247676463
 O   -0.483037725440    2.887347205801    0.789159548035
 C   -1.528242482311    0.685480731750    0.799448874403
 N   -2.899315784080    0.871811777063    0.799373689687
 C   -3.392839278591   -0.366791236982    0.789043590022
 H   -4.450337191859   -0.620937858814    0.786096945596
 H   -2.532227454339   -2.341785452078    0.774342047197
NA    4.540360263411   -1.372142107652   -5.164504472753
