17

 N   -2.411760111679   -1.334017765638    0.795316422042
 C   -1.201572044835   -0.678811561962    0.799278046010
 N    0.031840369468   -1.277489256424    0.811316330915
 C    1.002263569524   -0.387313114813    0.799443873942
 N    0.799186732111    0.974325018701    0.792608713600
 H    1.603013857362    1.594285558456    0.710620691178
 N    2.327718323761   -0.805987836493    0.721096570707
 H    2.982254529093   -0.274184612093    1.288737347437
 H    2.406523411152   -1.806687980428    0.882679908696
 C   -0.460087010206    1.660358722232    0.805562500277
 O   -0.487667379311    2.888531807009    0.801474371849
 C   -1.532872136182    0.686665332958    0.811763698217
 N   -2.903945437951    0.872996378271    0.811688513501
 C   -3.397468932462   -0.365606635774    0.801358413836
 H   -4.454966845730   -0.619753257606    0.798411769410
 H   -2.536857108210   -2.340600850870    0.786656871011
NA    4.570778423600   -1.379925278984   -5.245416414330
