17

 N   -2.421019419420   -1.331648563224    0.819946069671
 C   -1.210831352576   -0.676442359548    0.823907693639
 N    0.022581061727   -1.275120054010    0.835945978544
 C    0.993004261783   -0.384943912399    0.824073521571
 N    0.789927424370    0.976694221115    0.817238361229
 H    1.593754549621    1.596654760870    0.735250338807
 N    2.318459016020   -0.803618634079    0.745726218336
 H    2.972995221352   -0.271815409679    1.313366995066
 H    2.397264103411   -1.804318778014    0.907309556325
 C   -0.469346317947    1.662727924646    0.830192147906
 O   -0.496926687052    2.890901009423    0.826104019478
 C   -1.542131443923    0.689034535372    0.836393345846
 N   -2.913204745692    0.875365580685    0.836318161130
 C   -3.406728240203   -0.363237433360    0.825988061465
 H   -4.464226153471   -0.617384055192    0.823041417039
 H   -2.546116415951   -2.338231648456    0.811286518640
NA    4.631614743979   -1.395491621647   -5.407240297483
