17

 N   -2.425649073290   -1.330463962017    0.832260893486
 C   -1.215461006446   -0.675257758341    0.836222517454
 N    0.017951407857   -1.273935452803    0.848260802359
 C    0.988374607913   -0.383759311192    0.836388345386
 N    0.785297770500    0.977878822322    0.829553185044
 H    1.589124895751    1.597839362077    0.747565162622
 N    2.313829362150   -0.802434032872    0.758041042151
 H    2.968365567482   -0.270630808472    1.325681818881
 H    2.392634449541   -1.803134176807    0.919624380140
 C   -0.473975971817    1.663912525853    0.842506971721
 O   -0.501556340922    2.892085610630    0.838418843293
 C   -1.546761097793    0.690219136579    0.848708169661
 N   -2.917834399562    0.876550181892    0.848632984945
 C   -3.411357894073   -0.362052832153    0.838302885280
 H   -4.468855807341   -0.616199453985    0.835356240854
 H   -2.550746069821   -2.337047047249    0.823601342455
NA    4.662032904169   -1.403274792979   -5.488152239060
