17

 N   -2.434908381031   -1.328094759602    0.856890541115
 C   -1.224720314187   -0.672888555926    0.860852165083
 N    0.008692100116   -1.271566250388    0.872890449988
 C    0.979115300172   -0.381390108777    0.861017993015
 N    0.776038462759    0.980248024737    0.854182832673
 H    1.579865588010    1.600208564492    0.772194810251
 N    2.304570054409   -0.800064830457    0.782670689780
 H    2.959106259741   -0.268261606057    1.350311466510
 H    2.383375141800   -1.800764974392    0.944254027769
 C   -0.483235279558    1.666281728268    0.867136619350
 O   -0.510815648663    2.894454813045    0.863048490922
 C   -1.556020405534    0.692588338994    0.873337817290
 N   -2.927093707303    0.878919384307    0.873262632574
 C   -3.420617201814   -0.359683629738    0.862932532909
 H   -4.478115115082   -0.613830251570    0.859985888483
 H   -2.560005377562   -2.334677844834    0.848230990084
NA    4.722869224547   -1.418841135643   -5.649976122213
