17

 N   -2.448797342643   -1.324540955981    0.893835012559
 C   -1.238609275799   -0.669334752305    0.897796636527
 N   -0.005196861496   -1.268012446767    0.909834921432
 C    0.965226338560   -0.377836305156    0.897962464459
 N    0.762149501147    0.983801828358    0.891127304117
 H    1.565976626398    1.603762368113    0.809139281695
 N    2.290681092797   -0.796511026836    0.819615161224
 H    2.945217298129   -0.264707802436    1.387255937954
 H    2.369486180188   -1.797211170771    0.981198499213
 C   -0.497124241170    1.669835531889    0.904081090794
 O   -0.524704610275    2.898008616666    0.899992962366
 C   -1.569909367146    0.696142142615    0.910282288734
 N   -2.940982668915    0.882473187928    0.910207104018
 C   -3.434506163426   -0.356129826117    0.899877004353
 H   -4.492004076694   -0.610276447949    0.896930359927
 H   -2.573894339174   -2.331124041213    0.885175461528
NA    4.814123705116   -1.442190649638   -5.892711946943
