17

 N   -2.462686304255   -1.320987152359    0.930779484002
 C   -1.252498237411   -0.665780948683    0.934741107970
 N   -0.019085823108   -1.264458643145    0.946779392875
 C    0.951337376948   -0.374282501534    0.934906935902
 N    0.748260539535    0.987355631980    0.928071775560
 H    1.552087664786    1.607316171735    0.846083753138
 N    2.276792131185   -0.792957223214    0.856559632667
 H    2.931328336517   -0.261153998814    1.424200409397
 H    2.355597218576   -1.793657367149    1.018142970656
 C   -0.511013202782    1.673389335511    0.941025562237
 O   -0.538593571887    2.901562420288    0.936937433809
 C   -1.583798328758    0.699695946237    0.947226760177
 N   -2.954871630527    0.886026991550    0.947151575461
 C   -3.448395125038   -0.352576022495    0.936821475796
 H   -4.505893038306   -0.606722644327    0.933874831370
 H   -2.587783300786   -2.327570237591    0.922119932971
NA    4.905378185684   -1.465540163633   -6.135447771673
