17

 N   -2.471945611996   -1.318617949945    0.955409131631
 C   -1.261757545152   -0.663411746269    0.959370755599
 N   -0.028345130849   -1.262089440731    0.971409040504
 C    0.942078069207   -0.371913299120    0.959536583531
 N    0.739001231794    0.989724834394    0.952701423189
 H    1.542828357045    1.609685374149    0.870713400767
 N    2.267532823444   -0.790588020800    0.881189280296
 H    2.922069028776   -0.258784796400    1.448830057026
 H    2.346337910835   -1.791288164735    1.042772618285
 C   -0.520272510523    1.675758537925    0.965655209866
 O   -0.547852879628    2.903931622702    0.961567081438
 C   -1.593057636499    0.702065148651    0.971856407806
 N   -2.964130938268    0.888396193964    0.971781223090
 C   -3.457654432779   -0.350206820081    0.961451123425
 H   -4.515152346047   -0.604353441913    0.958504478999
 H   -2.597042608527   -2.325201035177    0.946749580600
NA    4.966214506063   -1.481106506296   -6.297271654827
