17

 N   -2.481204919737   -1.316248747530    0.980038779260
 C   -1.271016852893   -0.661042543854    0.984000403228
 N   -0.037604438590   -1.259720238316    0.996038688133
 C    0.932818761466   -0.369544096705    0.984166231160
 N    0.729741924053    0.992094036809    0.977331070818
 H    1.533569049304    1.612054576564    0.895343048396
 N    2.258273515703   -0.788218818385    0.905818927925
 H    2.912809721035   -0.256415593985    1.473459704655
 H    2.337078603094   -1.788918962320    1.067402265914
 C   -0.529531818264    1.678127740340    0.990284857495
 O   -0.557112187369    2.906300825117    0.986196729067
 C   -1.602316944240    0.704434351066    0.996486055435
 N   -2.973390246009    0.890765396379    0.996410870719
 C   -3.466913740520   -0.347837617666    0.986080771054
 H   -4.524411653788   -0.601984239498    0.983134126628
 H   -2.606301916268   -2.322831832762    0.971379228229
NA    5.027050826442   -1.496672848960   -6.459095537980
