17

 N   -2.518242150701   -1.306771937873    1.078557369776
 C   -1.308054083857   -0.651565734197    1.082518993744
 N   -0.074641669554   -1.250243428659    1.094557278649
 C    0.895781530502   -0.360067287048    1.082684821676
 N    0.692704693089    1.001570846466    1.075849661334
 H    1.496531818340    1.621531386221    0.993861638912
 N    2.221236284739   -0.778742008728    1.004337518441
 H    2.875772490071   -0.246938784328    1.571978295171
 H    2.300041372130   -1.779442152663    1.165920856430
 C   -0.566569049228    1.687604549997    1.088803448011
 O   -0.594149418333    2.915777634774    1.084715319583
 C   -1.639354175204    0.713911160723    1.095004645951
 N   -3.010427476973    0.900242206036    1.094929461235
 C   -3.503950971484   -0.338360808009    1.084599361570
 H   -4.561448884752   -0.592507429841    1.081652717144
 H   -2.643339147232   -2.313355023105    1.069897818745
NA    5.270396107957   -1.558938219614   -7.106391070594
