17

 N   -2.522871804572   -1.305587336666    1.090872193591
 C   -1.312683737728   -0.650381132990    1.094833817559
 N   -0.079271323425   -1.249058827452    1.106872102464
 C    0.891151876631   -0.358882685841    1.094999645491
 N    0.688075039218    1.002755447673    1.088164485149
 H    1.491902164469    1.622715987428    1.006176462727
 N    2.216606630868   -0.777557407521    1.016652342256
 H    2.871142836200   -0.245754183121    1.584293118986
 H    2.295411718259   -1.778257551456    1.178235680245
 C   -0.571198703099    1.688789151204    1.101118271826
 O   -0.598779072204    2.916962235981    1.097030143398
 C   -1.643983829075    0.715095761930    1.107319469766
 N   -3.015057130844    0.901426807243    1.107244285050
 C   -3.508580625355   -0.337176206802    1.096914185385
 H   -4.566078538623   -0.591322828634    1.093967540959
 H   -2.647968801103   -2.312170421898    1.082212642560
NA    5.300814268147   -1.566721390945   -7.187303012171
