17

 N   -2.527501458442   -1.304402735459    1.103187017405
 C   -1.317313391598   -0.649196531783    1.107148641373
 N   -0.083900977295   -1.247874226245    1.119186926278
 C    0.886522222761   -0.357698084634    1.107314469305
 N    0.683445385348    1.003940048880    1.100479308963
 H    1.487272510599    1.623900588635    1.018491286541
 N    2.211976976998   -0.776372806314    1.028967166070
 H    2.866513182330   -0.244569581914    1.596607942800
 H    2.290782064389   -1.777072950249    1.190550504059
 C   -0.575828356969    1.689973752411    1.113433095640
 O   -0.603408726074    2.918146837188    1.109344967212
 C   -1.648613482945    0.716280363137    1.119634293580
 N   -3.019686784714    0.902611408450    1.119559108864
 C   -3.513210279225   -0.335991605595    1.109229009199
 H   -4.570708192493   -0.590138227427    1.106282364773
 H   -2.652598454973   -2.310985820691    1.094527466374
NA    5.331232428336   -1.574504562277   -7.268214953747
