17

 N   -2.541390420054   -1.300848931837    1.140131488849
 C   -1.331202353210   -0.645642728161    1.144093112817
 N   -0.097789938907   -1.244320422623    1.156131397722
 C    0.872633261149   -0.354144281012    1.144258940749
 N    0.669556423736    1.007493852502    1.137423780407
 H    1.473383548987    1.627454392257    1.055435757985
 N    2.198088015386   -0.772819002692    1.065911637514
 H    2.852624220718   -0.241015778292    1.633552414244
 H    2.276893102777   -1.773519146627    1.227494975503
 C   -0.589717318581    1.693527556033    1.150377567084
 O   -0.617297687686    2.921700640810    1.146289438656
 C   -1.662502444557    0.719834166759    1.156578765024
 N   -3.033575746326    0.906165212072    1.156503580308
 C   -3.527099240837   -0.332437801973    1.146173480643
 H   -4.584597154105   -0.586584423805    1.143226836217
 H   -2.666487416585   -2.307432017069    1.131471937818
NA    5.422486908904   -1.597854076272   -7.510950778477
