17

 N   -2.546020073925   -1.299664330630    1.152446312663
 C   -1.335832007081   -0.644458126954    1.156407936631
 N   -0.102419592778   -1.243135821416    1.168446221536
 C    0.868003607278   -0.352959679805    1.156573764563
 N    0.664926769865    1.008678453709    1.149738604221
 H    1.468753895116    1.628638993464    1.067750581799
 N    2.193458361515   -0.771634401485    1.078226461328
 H    2.847994566847   -0.239831177085    1.645867238058
 H    2.272263448906   -1.772334545420    1.239809799317
 C   -0.594346972452    1.694712157240    1.162692390898
 O   -0.621927341557    2.922885242017    1.158604262470
 C   -1.667132098428    0.721018767966    1.168893588838
 N   -3.038205400197    0.907349813279    1.168818404122
 C   -3.531728894708   -0.331253200766    1.158488304457
 H   -4.589226807976   -0.585399822598    1.155541660031
 H   -2.671117070456   -2.306247415862    1.143786761632
NA    5.452905069094   -1.605637247604   -7.591862720054
