17

 N   -2.555279381666   -1.297295128215    1.177075960292
 C   -1.345091314822   -0.642088924539    1.181037584260
 N   -0.111678900519   -1.240766619001    1.193075869165
 C    0.858744299537   -0.350590477390    1.181203412192
 N    0.655667462124    1.011047656124    1.174368251850
 H    1.459494587375    1.631008195879    1.092380229428
 N    2.184199053774   -0.769265199070    1.102856108957
 H    2.838735259106   -0.237461974670    1.670496885687
 H    2.263004141165   -1.769965343005    1.264439446946
 C   -0.603606280193    1.697081359655    1.187322038527
 O   -0.631186649298    2.925254444432    1.183233910099
 C   -1.676391406169    0.723387970381    1.193523236467
 N   -3.047464707938    0.909719015694    1.193448051751
 C   -3.540988202449   -0.328883998351    1.183117952086
 H   -4.598486115717   -0.583030620183    1.180171307660
 H   -2.680376378197   -2.303878213447    1.168416409261
NA    5.513741389473   -1.621203590267   -7.753686603208
