17

 N   -2.573797997148   -1.292556723387    1.226335255550
 C   -1.363609930304   -0.637350519711    1.230296879518
 N   -0.130197516001   -1.236028214173    1.242335164423
 C    0.840225684055   -0.345852072562    1.230462707450
 N    0.637148846642    1.015786060952    1.223627547108
 H    1.440975971893    1.635746600707    1.141639524686
 N    2.165680438292   -0.764526794242    1.152115404215
 H    2.820216643624   -0.232723569842    1.719756180945
 H    2.244485525683   -1.765226938177    1.313698742204
 C   -0.622124895675    1.701819764483    1.236581333785
 O   -0.649705264780    2.929992849260    1.232493205357
 C   -1.694910021651    0.728126375209    1.242782531725
 N   -3.065983323420    0.914457420522    1.242707347009
 C   -3.559506817931   -0.324145593523    1.232377247344
 H   -4.617004731199   -0.578292215355    1.229430602918
 H   -2.698894993679   -2.299139808619    1.217675704519
NA    5.635414030230   -1.652336275594   -8.077334369514
