14

 C    2.252229933849    2.669844276850    0.000000128444
 O    1.725969933849    1.275524276850    0.000000128444
 H    2.533449933849    0.747734276850    0.000000128444
 H    1.397629933849    3.350284276850    0.000000128444
 H    2.912989933849    2.807854276850    0.868920128444
 H    2.912989933849    2.807854276850   -0.868919871556
CS   -0.328700066151   -0.242915723150   -2.343789871556
CS   -0.328700066151   -0.242915723150    2.343790128444
 O    1.002171468674    0.740626359666   -0.000001111337
 C    0.475911105640   -0.653695532582   -0.000001111336
 H    0.194691763399    1.268418681004   -0.000003502681
 H    1.330519129395   -1.334140044519    0.000001528823
 H   -0.184838717826   -0.791703665878   -0.868922002980
 H   -0.184842845999   -0.791702107776    0.868916888590
