14

 C    2.267846182379    2.681384918637    0.000000155193
 O    1.741586182379    1.287064918637    0.000000155193
 H    2.549066182379    0.759274918637    0.000000155193
 H    1.413246182379    3.361824918637    0.000000155193
 H    2.928606182379    2.819394918637    0.868920155193
 H    2.928606182379    2.819394918637   -0.868919844807
CS   -0.313083817621   -0.231375081363   -2.343789844807
CS   -0.313083817621   -0.231375081363    2.343790155193
 O    0.856943613831    0.633300797634   -0.000001360095
 C    0.330683250798   -0.761021094613   -0.000001360094
 H    0.049463908557    1.161093118973   -0.000003751439
 H    1.185291274553   -1.441465606551    0.000001280065
 H   -0.330066572668   -0.899029227909   -0.868922251738
 H   -0.330070700841   -0.899027669807    0.868916639832
