14

 C    2.283462430909    2.692925560425    0.000000181942
 O    1.757202430909    1.298605560425    0.000000181942
 H    2.564682430909    0.770815560425    0.000000181942
 H    1.428862430909    3.373365560425    0.000000181942
 H    2.944222430909    2.830935560425    0.868920181942
 H    2.944222430909    2.830935560425   -0.868919818058
CS   -0.297467569091   -0.219834439575   -2.343789818058
CS   -0.297467569091   -0.219834439575    2.343790181942
 O    0.711715758989    0.525975235603   -0.000001608853
 C    0.185455395955   -0.868346656644   -0.000001608853
 H   -0.095763946285    1.053767556942   -0.000004000197
 H    1.040063419711   -1.548791168582    0.000001031307
 H   -0.475294427510   -1.006354789941   -0.868922500496
 H   -0.475298555684   -1.006353231839    0.868916391074
