14

 C    2.322503052234    2.721777164894    0.000000248814
 O    1.796243052234    1.327457164894    0.000000248814
 H    2.603723052234    0.799667164894    0.000000248814
 H    1.467903052234    3.402217164894    0.000000248814
 H    2.983263052234    2.859787164894    0.868920248814
 H    2.983263052234    2.859787164894   -0.868919751186
CS   -0.258426947766   -0.190982835106   -2.343789751186
CS   -0.258426947766   -0.190982835106    2.343790248814
 O    0.348646121883    0.257661330525   -0.000002230749
 C   -0.177614241150   -1.136660561722   -0.000002230748
 H   -0.458833583391    0.785453651864   -0.000004622093
 H    0.676993782605   -1.817105073660    0.000000409412
 H   -0.838364064616   -1.274668695018   -0.868923122391
 H   -0.838368192789   -1.274667136917    0.868915769179
