14

 C    2.345927425029    2.739088127575    0.000000288937
 O    1.819667425029    1.344768127575    0.000000288937
 H    2.627147425029    0.816978127575    0.000000288937
 H    1.491327425029    3.419528127575    0.000000288937
 H    3.006687425029    2.877098127575    0.868920288937
 H    3.006687425029    2.877098127575   -0.868919711063
CS   -0.235002574971   -0.173671872425   -2.343789711063
CS   -0.235002574971   -0.173671872425    2.343790288937
 O    0.130804339620    0.096672987478   -0.000002603886
 C   -0.395456023414   -1.297648904769   -0.000002603885
 H   -0.676675365654    0.624465308817   -0.000004995230
 H    0.459152000342   -1.978093416707    0.000000036274
 H   -1.056205846879   -1.435657038065   -0.868923495529
 H   -1.056209975053   -1.435655479963    0.868915396041
