14

 C    2.369351797825    2.756399090257    0.000000329060
 O    1.843091797825    1.362079090257    0.000000329060
 H    2.650571797825    0.834289090257    0.000000329060
 H    1.514751797825    3.436839090257    0.000000329060
 H    3.030111797825    2.894409090257    0.868920329060
 H    3.030111797825    2.894409090257   -0.868919670940
CS   -0.211578202175   -0.156360909743   -2.343789670940
CS   -0.211578202175   -0.156360909743    2.343790329060
 O   -0.087037442643   -0.064315355568   -0.000002977023
 C   -0.613297805677   -1.458637247816   -0.000002977022
 H   -0.894517147918    0.463476965770   -0.000005368367
 H    0.241310218078   -2.139081759753   -0.000000336863
 H   -1.274047629142   -1.596645381112   -0.868923868666
 H   -1.274051757316   -1.596643823010    0.868915022904
