14

 C    2.392776170620    2.773710052938    0.000000369183
 O    1.866516170620    1.379390052938    0.000000369183
 H    2.673996170620    0.851600052938    0.000000369183
 H    1.538176170620    3.454150052938    0.000000369183
 H    3.053536170620    2.911720052938    0.868920369183
 H    3.053536170620    2.911720052938   -0.868919630817
CS   -0.188153829380   -0.139049947062   -2.343789630817
CS   -0.188153829380   -0.139049947062    2.343790369183
 O   -0.304879224907   -0.225303698615   -0.000003350161
 C   -0.831139587940   -1.619625590862   -0.000003350160
 H   -1.112358930181    0.302488622723   -0.000005741504
 H    0.023468435815   -2.300070102800   -0.000000710000
 H   -1.491889411406   -1.757633724159   -0.868924241803
 H   -1.491893539579   -1.757632166057    0.868914649767
