14

 C    2.400584294885    2.779480373832    0.000000382558
 O    1.874324294885    1.385160373832    0.000000382558
 H    2.681804294885    0.857370373832    0.000000382558
 H    1.545984294885    3.459920373832    0.000000382558
 H    3.061344294885    2.917490373832    0.868920382558
 H    3.061344294885    2.917490373832   -0.868919617442
CS   -0.180345705115   -0.133279626168   -2.343789617442
CS   -0.180345705115   -0.133279626168    2.343790382558
 O   -0.377493152328   -0.278966479631   -0.000003474540
 C   -0.903753515361   -1.673288371878   -0.000003474539
 H   -1.184972857602    0.248825841708   -0.000005865884
 H   -0.049145491606   -2.353732883816   -0.000000834379
 H   -1.564503338827   -1.811296505174   -0.868924366182
 H   -1.564507467000   -1.811294947073    0.868914525388
