14

 C    2.408392419150    2.785250694725    0.000000395932
 O    1.882132419150    1.390930694725    0.000000395932
 H    2.689612419150    0.863140694725    0.000000395932
 H    1.553792419150    3.465690694725    0.000000395932
 H    3.069152419150    2.923260694725    0.868920395932
 H    3.069152419150    2.923260694725   -0.868919604068
CS   -0.172537580850   -0.127509305275   -2.343789604068
CS   -0.172537580850   -0.127509305275    2.343790395932
 O   -0.450107079749   -0.332629260646   -0.000003598919
 C   -0.976367442783   -1.726951152894   -0.000003598918
 H   -1.257586785023    0.195163060692   -0.000005990263
 H   -0.121759419027   -2.407395664831   -0.000000958758
 H   -1.637117266248   -1.864959286190   -0.868924490561
 H   -1.637121394422   -1.864957728088    0.868914401009
