14

 C    2.416200543415    2.791021015619    0.000000409307
 O    1.889940543415    1.396701015619    0.000000409307
 H    2.697420543415    0.868911015619    0.000000409307
 H    1.561600543415    3.471461015619    0.000000409307
 H    3.076960543415    2.929031015619    0.868920409307
 H    3.076960543415    2.929031015619   -0.868919590693
CS   -0.164729456585   -0.121738984381   -2.343789590693
CS   -0.164729456585   -0.121738984381    2.343790409307
 O   -0.522721007170   -0.386292041662   -0.000003723298
 C   -1.048981370204   -1.780613933909   -0.000003723297
 H   -1.330200712444    0.141500279677   -0.000006114642
 H   -0.194373346448   -2.461058445847   -0.000001083137
 H   -1.709731193669   -1.918622067206   -0.868924614940
 H   -1.709735321843   -1.918620509104    0.868914276630
