14

 C    2.424008667680    2.796791336513    0.000000422681
 O    1.897748667680    1.402471336513    0.000000422681
 H    2.705228667680    0.874681336513    0.000000422681
 H    1.569408667680    3.477231336513    0.000000422681
 H    3.084768667680    2.934801336513    0.868920422681
 H    3.084768667680    2.934801336513   -0.868919577319
CS   -0.156921332320   -0.115968663487   -2.343789577319
CS   -0.156921332320   -0.115968663487    2.343790422681
 O   -0.595334934591   -0.439954822678   -0.000003847677
 C   -1.121595297625   -1.834276714925   -0.000003847676
 H   -1.402814639866    0.087837498661   -0.000006239021
 H   -0.266987273870   -2.514721226863   -0.000001207516
 H   -1.782345121090   -1.972284848221   -0.868924739319
 H   -1.782349249264   -1.972283290119    0.868914152251
