14

 C    2.486473661800    2.842953903663    0.000000529676
 O    1.960213661800    1.448633903663    0.000000529676
 H    2.767693661800    0.920843903663    0.000000529676
 H    1.631873661800    3.523393903663    0.000000529676
 H    3.147233661800    2.980963903663    0.868920529676
 H    3.147233661800    2.980963903663   -0.868919470324
CS   -0.094456338200   -0.069806096337   -2.343789470324
CS   -0.094456338200   -0.069806096337    2.343790529676
 O   -1.176246353960   -0.869257070802   -0.000004842710
 C   -1.702506716994   -2.263578963050   -0.000004842709
 H   -1.983726059235   -0.341464749464   -0.000007234053
 H   -0.847898693238   -2.944023474987   -0.000002202549
 H   -2.363256540459   -2.401587096346   -0.868925734352
 H   -2.363260668633   -2.401585538244    0.868913157218
