14

 C    2.502089910330    2.854494545451    0.000000556425
 O    1.975829910330    1.460174545451    0.000000556425
 H    2.783309910330    0.932384545451    0.000000556425
 H    1.647489910330    3.534934545451    0.000000556425
 H    3.162849910330    2.992504545451    0.868920556425
 H    3.162849910330    2.992504545451   -0.868919443575
CS   -0.078840089670   -0.058265454549   -2.343789443575
CS   -0.078840089670   -0.058265454549    2.343790556425
 O   -1.321474208802   -0.976582632834   -0.000005091468
 C   -1.847734571836   -2.370904525081   -0.000005091467
 H   -2.128953914077   -0.448790311495   -0.000007482812
 H   -0.993126548081   -3.051349037019   -0.000002451307
 H   -2.508484395301   -2.508912658377   -0.868925983110
 H   -2.508488523475   -2.508911100275    0.868912908460
