14

 C    2.525514283125    2.871805508132    0.000000596548
 O    1.999254283125    1.477485508132    0.000000596548
 H    2.806734283125    0.949695508132    0.000000596548
 H    1.670914283125    3.552245508132    0.000000596548
 H    3.186274283125    3.009815508132    0.868920596548
 H    3.186274283125    3.009815508132   -0.868919403452
CS   -0.055415716875   -0.040954491868   -2.343789403452
CS   -0.055415716875   -0.040954491868    2.343790596548
 O   -1.539315991066   -1.137570975880   -0.000005464605
 C   -2.065576354099   -2.531892868128   -0.000005464604
 H   -2.346795696340   -0.609778654542   -0.000007855949
 H   -1.210968330344   -3.212337380065   -0.000002824445
 H   -2.726326177565   -2.669901001424   -0.868926356247
 H   -2.726330305738   -2.669899443322    0.868912535323
