14

 C    2.541130531655    2.883346149920    0.000000623297
 O    2.014870531655    1.489026149920    0.000000623297
 H    2.822350531655    0.961236149920    0.000000623297
 H    1.686530531655    3.563786149920    0.000000623297
 H    3.201890531655    3.021356149920    0.868920623297
 H    3.201890531655    3.021356149920   -0.868919376703
CS   -0.039799468345   -0.029413850080   -2.343789376703
CS   -0.039799468345   -0.029413850080    2.343790623297
 O   -1.684543845908   -1.244896537912   -0.000005713363
 C   -2.210804208942   -2.639218430159   -0.000005713362
 H   -2.492023551182   -0.717104216573   -0.000008104707
 H   -1.356196185186   -3.319662942097   -0.000003073203
 H   -2.871554032407   -2.777226563455   -0.868926605006
 H   -2.871558160581   -2.777225005353    0.868912286564
