14

 C    2.634828022836    2.952590000645    0.000000783790
 O    2.108568022836    1.558270000645    0.000000783790
 H    2.916048022836    1.030480000645    0.000000783790
 H    1.780228022836    3.633030000645    0.000000783790
 H    3.295588022836    3.090600000645    0.868920783790
 H    3.295588022836    3.090600000645   -0.868919216210
CS    0.053898022836    0.039830000645   -2.343789216210
CS    0.053898022836    0.039830000645    2.343790783790
 O   -2.555910974961   -1.888849910099   -0.000007205912
 C   -3.082171337995   -3.283171802346   -0.000007205911
 H   -3.363390680236   -1.361057588760   -0.000009597256
 H   -2.227563314240   -3.963616314284   -0.000004565752
 H   -3.742921161460   -3.421179935642   -0.868928097555
 H   -3.742925289634   -3.421178377541    0.868910794015
