14

 C    2.642636147101    2.958360321539    0.000000797164
 O    2.116376147101    1.564040321539    0.000000797164
 H    2.923856147101    1.036250321539    0.000000797164
 H    1.788036147101    3.638800321539    0.000000797164
 H    3.303396147101    3.096370321539    0.868920797164
 H    3.303396147101    3.096370321539   -0.868919202836
CS    0.061706147101    0.045600321539   -2.343789202836
CS    0.061706147101    0.045600321539    2.343790797164
 O   -2.628524902382   -1.942512691114   -0.000007330291
 C   -3.154785265416   -3.336834583362   -0.000007330290
 H   -3.436004607657   -1.414720369776   -0.000009721635
 H   -2.300177241661   -4.017279095299   -0.000004690131
 H   -3.815535088882   -3.474842716658   -0.868928221934
 H   -3.815539217055   -3.474841158556    0.868910669636
