14

 C    2.650444271366    2.964130642433    0.000000810538
 O    2.124184271366    1.569810642433    0.000000810538
 H    2.931664271366    1.042020642433    0.000000810538
 H    1.795844271366    3.644570642433    0.000000810538
 H    3.311204271366    3.102140642433    0.868920810538
 H    3.311204271366    3.102140642433   -0.868919189462
CS    0.069514271366    0.051370642433   -2.343789189462
CS    0.069514271366    0.051370642433    2.343790810538
 O   -2.701138829804   -1.996175472130   -0.000007454670
 C   -3.227399192837   -3.390497364377   -0.000007454669
 H   -3.508618535078   -1.468383150791   -0.000009846014
 H   -2.372791169082   -4.070941876315   -0.000004814510
 H   -3.888149016303   -3.528505497674   -0.868928346313
 H   -3.888153144476   -3.528503939572    0.868910545257
