14

 C    2.806606756667    3.079537060308    0.000001078026
 O    2.280346756667    1.685217060308    0.000001078026
 H    3.087826756667    1.157427060308    0.000001078026
 H    1.952006756667    3.759977060308    0.000001078026
 H    3.467366756667    3.217547060308    0.868921078026
 H    3.467366756667    3.217547060308   -0.868918921974
CS    0.225676756667    0.166777060308   -2.343788921974
CS    0.225676756667    0.166777060308    2.343791078026
 O   -4.153417378226   -3.069431092442   -0.000009942252
 C   -4.679677741260   -4.463752984689   -0.000009942251
 H   -4.960897083500   -2.541638771103   -0.000012333596
 H   -3.825069717504   -5.144197496627   -0.000007302092
 H   -5.340427564725   -4.601761117986   -0.868930833895
 H   -5.340431692899   -4.601759559884    0.868908057675
