6

 H   -0.348341315747    1.423583882479    2.050809755989
 H    0.101715684253   -0.238341117521    2.507309755989
 H   -1.560251315747    0.120269882479    1.976083755989
 C   -0.495182315747    0.357780882479    1.790726755989
 S   -0.012013315747    0.008679882479    0.043443755989
NA    0.354387818890   -0.256053580352   -1.281571867388
