6

 H   -0.356938504501    1.429795554154    2.081899750915
 H    0.093118495499   -0.232129445846    2.538399750915
 H   -1.568848504501    0.126481554154    2.007173750915
 C   -0.503779504501    0.363992554154    1.821816750915
 S   -0.020610504501    0.014891554154    0.074533750915
NA    0.371962139753   -0.268751441737   -1.345125845561
