6

 H   -0.365535693256    1.436007225828    2.112989745842
 H    0.084521306744   -0.225917774172    2.569489745842
 H   -1.577445693256    0.132693225828    2.038263745842
 C   -0.512376693256    0.370204225828    1.852906745842
 S   -0.029207693256    0.021103225828    0.105623745842
NA    0.389536460615   -0.281449303122   -1.408679823733
