6

 H   -0.382730070765    1.448430569178    2.175169735694
 H    0.067326929235   -0.213494430822    2.631669735694
 H   -1.594640070765    0.145116569178    2.100443735694
 C   -0.529571070765    0.382627569178    1.915086735694
 S   -0.046402070765    0.033526569178    0.167803735694
NA    0.424685102340   -0.306845025891   -1.535787780077
