6

 H   -0.391327259519    1.454642240853    2.206259730621
 H    0.058729740481   -0.207282759147    2.662759730621
 H   -1.603237259519    0.151328240853    2.131533730621
 C   -0.538168259519    0.388839240853    1.946176730621
 S   -0.054999259519    0.039738240853    0.198893730621
NA    0.442259423202   -0.319542887276   -1.599341758249
