6

 H   -1.087699548635    1.957787646503    4.724549319654
 H   -0.637642548635    0.295862646503    5.181049319654
 H   -2.299609548635    0.654473646503    4.649823319654
 C   -1.234540548635    0.891984646503    4.464466319654
 S   -0.751371548635    0.542883646503    2.717183319654
NA    1.865779413056   -1.348069659437   -6.747213990184
