6

 H   -0.399924448274    1.460853912527    2.237349725547
 H    0.050132551726   -0.201071087473    2.693849725547
 H   -1.611834448274    0.157539912527    2.162623725547
 C   -0.546765448274    0.395050912527    1.977266725547
 S   -0.063596448274    0.045949912527    0.229983725547
NA    0.459833744065   -0.332240748661   -1.662895736421
