6

 H   -0.408521637028    1.467065584202    2.268439720473
 H    0.041535362972   -0.194859415798    2.724939720473
 H   -1.620431637028    0.163751584202    2.193713720473
 C   -0.555362637028    0.401262584202    2.008356720473
 S   -0.072193637028    0.052161584202    0.261073720473
NA    0.477408064927   -0.344938610045   -1.726449714593
