6

 H   -0.417118825783    1.473277255877    2.299529715400
 H    0.032938174217   -0.188647744123    2.756029715400
 H   -1.629028825783    0.169963255877    2.224803715400
 C   -0.563959825783    0.407474255877    2.039446715400
 S   -0.080790825783    0.058373255877    0.292163715400
NA    0.494982385789   -0.357636471430   -1.790003692765
