6

 H   -0.425716014537    1.479488927551    2.330619710326
 H    0.024340985463   -0.182436072449    2.787119710326
 H   -1.637626014537    0.176174927551    2.255893710326
 C   -0.572557014537    0.413685927551    2.070536710326
 S   -0.089388014537    0.064584927551    0.323253710326
NA    0.512556706652   -0.370334332815   -1.853557670937
