6

 H   -0.442910392046    1.491912270901    2.392799700179
 H    0.007146607954   -0.170012729099    2.849299700179
 H   -1.654820392046    0.188598270901    2.318073700179
 C   -0.589751392046    0.426109270901    2.132716700179
 S   -0.106582392046    0.077008270901    0.385433700179
NA    0.547705348377   -0.395730055584   -1.980665627281
