6

 H   -0.468701958310    1.510547285925    2.486069684958
 H   -0.018644958310   -0.151377714075    2.942569684958
 H   -1.680611958310    0.207233285925    2.411343684958
 C   -0.615542958310    0.444744285925    2.225986684958
 S   -0.132373958310    0.095643285925    0.478703684958
NA    0.600428310964   -0.433823639738   -2.171327561797
