6

 H   -0.511687902082    1.541605644298    2.641519659589
 H   -0.061630902082   -0.120319355702    3.098019659589
 H   -1.723597902082    0.238291644298    2.566793659589
 C   -0.658528902082    0.475802644298    2.381436659589
 S   -0.175359902082    0.126701644298    0.634153659589
NA    0.688299915276   -0.497312946662   -2.489097452657
