6

 H   -0.632048544646    1.628569047744    3.076779588558
 H   -0.181991544646   -0.033355952256    3.533279588558
 H   -1.843958544646    0.325255047744    3.002053588558
 C   -0.778889544646    0.562766047744    2.816696588558
 S   -0.295720544646    0.213665047744    1.069413588558
NA    0.934340407349   -0.675083006048   -3.378853147066
