6

 H   -0.657840110909    1.647204062768    3.170049573337
 H   -0.207783110909   -0.014720937232    3.626549573337
 H   -1.869750110909    0.343890062768    3.095323573337
 C   -0.804681110909    0.581401062768    2.909966573337
 S   -0.321512110909    0.232300062768    1.162683573337
NA    0.987063369936   -0.713176590202   -3.569515081582
