6

 H   -0.709423243436    1.684474092816    3.356589542895
 H   -0.259366243436    0.022549092816    3.813089542895
 H   -1.921333243436    0.381160092816    3.281863542895
 C   -0.856264243436    0.618671092816    3.096506542895
 S   -0.373095243436    0.269570092816    1.349223542895
NA    1.092509295111   -0.789363758510   -3.950838950614
