6

 H   -0.735214809700    1.703109107840    3.449859527674
 H   -0.285157809700    0.041184107840    3.906359527674
 H   -1.947124809700    0.399795107840    3.375133527674
 C   -0.882055809700    0.637306107840    3.189776527674
 S   -0.398886809700    0.288205107840    1.442493527674
NA    1.145232257698   -0.827457342664   -4.141500885131
