6

 H   -0.778200753473    1.734167466214    3.605309502306
 H   -0.328143753473    0.072242466214    4.061809502306
 H   -1.990110753473    0.430853466214    3.530583502306
 C   -0.925041753473    0.668364466214    3.345226502306
 S   -0.441872753473    0.319263466214    1.597943502306
NA    1.233103862010   -0.890946649587   -4.459270775991
