6

 H   -0.812589508491    1.759014152913    3.729669482011
 H   -0.362532508491    0.097089152913    4.186169482011
 H   -2.024499508491    0.455700152913    3.654943482011
 C   -0.959430508491    0.693211152913    3.469586482011
 S   -0.476261508491    0.344110152913    1.722303482011
NA    1.303401145460   -0.941738095126   -4.713486688679
