6

 H   -0.821186697245    1.765225824587    3.760759476937
 H   -0.371129697245    0.103300824587    4.217259476937
 H   -2.033096697245    0.461911824587    3.686033476937
 C   -0.968027697245    0.699422824587    3.500676476937
 S   -0.484858697245    0.350321824587    1.753393476937
NA    1.320975466322   -0.954435956511   -4.777040666851
