6

 H   -0.829783886000    1.771437496262    3.791849471864
 H   -0.379726886000    0.109512496262    4.248349471864
 H   -2.041693886000    0.468123496262    3.717123471864
 C   -0.976624886000    0.705634496262    3.531766471864
 S   -0.493455886000    0.356533496262    1.784483471864
NA    1.338549787184   -0.967133817896   -4.840594645023
