6

 H   -0.846978263509    1.783860839611    3.854029461716
 H   -0.396921263509    0.121935839611    4.310529461716
 H   -2.058888263509    0.480546839611    3.779303461716
 C   -0.993819263509    0.718057839611    3.593946461716
 S   -0.510650263509    0.368956839611    1.846663461716
NA    1.373698428909   -0.992529540665   -4.967702601367
