6

 H   -0.872769829772    1.802495854636    3.947299446495
 H   -0.422712829772    0.140570854636    4.403799446495
 H   -2.084679829772    0.499181854636    3.872573446495
 C   -1.019610829772    0.736692854636    3.687216446495
 S   -0.536441829772    0.387591854636    1.939933446495
NA    1.426421391496   -1.030623124819   -5.158364535883
