6

 H   -0.889964207281    1.814919197985    4.009479436348
 H   -0.439907207281    0.152994197985    4.465979436348
 H   -2.101874207281    0.511605197985    3.934753436348
 C   -1.036805207281    0.749116197985    3.749396436348
 S   -0.553636207281    0.400015197985    2.002113436348
NA    1.461570033221   -1.056018847588   -5.285472492227
