6

 H   -0.907158584790    1.827342541334    4.071659426201
 H   -0.457101584790    0.165417541334    4.528159426201
 H   -2.119068584790    0.524028541334    3.996933426201
 C   -1.053999584790    0.761539541334    3.811576426201
 S   -0.570830584790    0.412438541334    2.064293426201
NA    1.496718674946   -1.081414570358   -5.412580448571
