6

 H   -0.924352962299    1.839765884684    4.133839416053
 H   -0.474295962299    0.177840884684    4.590339416053
 H   -2.136262962299    0.536451884684    4.059113416053
 C   -1.071193962299    0.773962884684    3.873756416053
 S   -0.588024962299    0.424861884684    2.126473416053
NA    1.531867316671   -1.106810293127   -5.539688404916
