6

 H   -0.958741717317    1.864612571383    4.258199395759
 H   -0.508684717317    0.202687571383    4.714699395759
 H   -2.170651717317    0.561298571383    4.183473395759
 C   -1.105582717317    0.798809571383    3.998116395759
 S   -0.622413717317    0.449708571383    2.250833395759
NA    1.602164600120   -1.157601738666   -5.793904317604
