6

 H   -1.001727661090    1.895670929756    4.413649370390
 H   -0.551670661090    0.233745929756    4.870149370390
 H   -2.213637661090    0.592356929756    4.338923370390
 C   -1.148568661090    0.829867929756    4.153566370390
 S   -0.665399661090    0.480766929756    2.406283370390
NA    1.690036204432   -1.221091045590   -6.111674208464
