6

 H   -1.010324849845    1.901882601431    4.444739365317
 H   -0.560267849845    0.239957601431    4.901239365317
 H   -2.222234849845    0.598568601431    4.370013365317
 C   -1.157165849845    0.836079601431    4.184656365317
 S   -0.673996849845    0.486978601431    2.437373365317
NA    1.707610525295   -1.233788906974   -6.175228186636
