6

 H   -1.027519227354    1.914305944780    4.506919355169
 H   -0.577462227354    0.252380944780    4.963419355169
 H   -2.239429227354    0.610991944780    4.432193355169
 C   -1.174360227354    0.848502944780    4.246836355169
 S   -0.691191227354    0.499401944780    2.499553355169
NA    1.742759167019   -1.259184629744   -6.302336142980
