6

 H   -1.036116416108    1.920517616455    4.538009350096
 H   -0.586059416108    0.258592616455    4.994509350096
 H   -2.248026416108    0.617203616455    4.463283350096
 C   -1.182957416108    0.854714616455    4.277926350096
 S   -0.699788416108    0.505613616455    2.530643350096
NA    1.760333487882   -1.271882491128   -6.365890121152
