6

 H   -1.079102359881    1.951575974828    4.693459324727
 H   -0.629045359881    0.289650974828    5.149959324727
 H   -2.291012359881    0.648261974828    4.618733324727
 C   -1.225943359881    0.885772974828    4.433376324727
 S   -0.742774359881    0.536671974828    2.686093324727
NA    1.848205092194   -1.335371798052   -6.683660012012
