19

 C    0.932465680598   -3.873319286518    0.000000000000
 C   -0.312804319402   -3.020199286518    0.000000000000
 N   -1.489484319402   -3.678549286518    0.000000000000
 H   -2.356284319402   -3.155649286518    0.000000000000
 H   -1.529264319402   -4.688649286518    0.000000000000
 O   -0.271374319402   -1.770569286518    0.000000000000
 H    1.817115680598   -3.229019286518    0.000000000000
 H    0.949255680598   -4.518369286518    0.890470000000
 H    0.949255680598   -4.518369286518   -0.890470000000
NA    0.053565680598    0.349480713482    0.000000000000
 O    0.250516714837    1.634474989778    0.000000000000
 C    0.291942941528    2.884108524116    0.000000000000
 N    1.468622038082    3.542455007841    0.000000000000
 H    2.335426029856    3.019556952820    0.000000000000
 H    1.508408308219    4.552555031945    0.000000000000
 C   -0.953321549609    3.737229868364    0.000000000000
 H   -1.837974559887    3.092930016194    0.000000000000
 H   -0.970113063486    4.382287499884   -0.890469984435
 H   -0.970113063486    4.382287499884    0.890469984435
