19

 C    0.907103660788   -4.038792143346    0.000000000000
 C   -0.338166339212   -3.185672143346    0.000000000000
 N   -1.514846339212   -3.844022143346    0.000000000000
 H   -2.381646339212   -3.321122143346    0.000000000000
 H   -1.554626339212   -4.854122143346    0.000000000000
 O   -0.296736339212   -1.936042143346    0.000000000000
 H    1.791753660788   -3.394492143346    0.000000000000
 H    0.923893660788   -4.683842143346    0.890470000000
 H    0.923893660788   -4.683842143346   -0.890470000000
NA    0.028203660788    0.184007856654    0.000000000000
 O    0.285755013255    1.864384987194    0.000000000000
 C    0.327181239946    3.114018521532    0.000000000000
 N    1.503860336500    3.772365005258    0.000000000000
 H    2.370664328274    3.249466950237    0.000000000000
 H    1.543646606637    4.782465029361    0.000000000000
 C   -0.918083251191    3.967139865780    0.000000000000
 H   -1.802736261469    3.322840013610    0.000000000000
 H   -0.934874765069    4.612197497301   -0.890469984435
 H   -0.934874765069    4.612197497301    0.890469984435
