19

 C    0.380841749735   -7.472353922530    0.000000000000
 C   -0.864428250265   -6.619233922530    0.000000000000
 N   -2.041108250265   -7.277583922530    0.000000000000
 H   -2.907908250265   -6.754683922530    0.000000000000
 H   -2.080888250265   -8.287683922530    0.000000000000
 O   -0.822998250265   -5.369603922530    0.000000000000
 H    1.265491749735   -6.828053922530    0.000000000000
 H    0.397631749735   -8.117403922530    0.890470000000
 H    0.397631749735   -8.117403922530   -0.890470000000
NA   -0.498058250265   -3.249553922530    0.000000000000
 O    1.016949705423    6.635017433589    0.000000000000
 C    1.058375932115    7.884650967927    0.000000000000
 N    2.235055028668    8.542997451653    0.000000000000
 H    3.101859020442    8.020099396632    0.000000000000
 H    2.274841298805    9.553097475756    0.000000000000
 C   -0.186888559023    8.737772312175    0.000000000000
 H   -1.071541569301    8.093472460005    0.000000000000
 H   -0.203680072900    9.382829943695   -0.890469984435
 H   -0.203680072900    9.382829943695    0.890469984435
