19

 C    0.875401136026   -4.245633214381    0.000000000000
 C   -0.369868863974   -3.392513214381    0.000000000000
 N   -1.546548863974   -4.050863214381    0.000000000000
 H   -2.413348863974   -3.527963214381    0.000000000000
 H   -1.586328863974   -5.060963214381    0.000000000000
 O   -0.328438863974   -2.142883214381    0.000000000000
 H    1.760051136026   -3.601333214381    0.000000000000
 H    0.892191136026   -4.890683214381    0.890470000000
 H    0.892191136026   -4.890683214381   -0.890470000000
NA   -0.003498863974   -0.022833214381    0.000000000000
 O    0.329802886277    2.151772483965    0.000000000000
 C    0.371229112968    3.401406018303    0.000000000000
 N    1.547908209522    4.059752502029    0.000000000000
 H    2.414712201296    3.536854447008    0.000000000000
 H    1.587694479659    5.069852526132    0.000000000000
 C   -0.874035378169    4.254527362551    0.000000000000
 H   -1.758688388447    3.610227510381    0.000000000000
 H   -0.890826892046    4.899584994071   -0.890469984435
 H   -0.890826892046    4.899584994071    0.890469984435
