19

 C    0.862720126121   -4.328369642795    0.000000000000
 C   -0.382549873879   -3.475249642795    0.000000000000
 N   -1.559229873879   -4.133599642795    0.000000000000
 H   -2.426029873879   -3.610699642795    0.000000000000
 H   -1.599009873879   -5.143699642795    0.000000000000
 O   -0.341119873879   -2.225619642795    0.000000000000
 H    1.747370126121   -3.684069642795    0.000000000000
 H    0.879510126121   -4.973419642795    0.890470000000
 H    0.879510126121   -4.973419642795   -0.890470000000
NA   -0.016179873879   -0.105569642795    0.000000000000
 O    0.347422035486    2.266727482673    0.000000000000
 C    0.388848262177    3.516361017011    0.000000000000
 N    1.565527358731    4.174707500737    0.000000000000
 H    2.432331350505    3.651809445716    0.000000000000
 H    1.605313628868    5.184807524841    0.000000000000
 C   -0.856416228960    4.369482361260    0.000000000000
 H   -1.741069239238    3.725182509090    0.000000000000
 H   -0.873207742838    5.014539992780   -0.890469984435
 H   -0.873207742838    5.014539992780    0.890469984435
