19

 C    0.856379621168   -4.369737857002    0.000000000000
 C   -0.388890378832   -3.516617857002    0.000000000000
 N   -1.565570378832   -4.174967857002    0.000000000000
 H   -2.432370378832   -3.652067857002    0.000000000000
 H   -1.605350378832   -5.185067857002    0.000000000000
 O   -0.347460378832   -2.266987857002    0.000000000000
 H    1.741029621168   -3.725437857002    0.000000000000
 H    0.873169621168   -5.014787857002    0.890470000000
 H    0.873169621168   -5.014787857002   -0.890470000000
NA   -0.022520378832   -0.146937857002    0.000000000000
 O    0.356231610090    2.324204982028    0.000000000000
 C    0.397657836782    3.573838516366    0.000000000000
 N    1.574336933335    4.232185000091    0.000000000000
 H    2.441140925109    3.709286945070    0.000000000000
 H    1.614123203473    5.242285024195    0.000000000000
 C   -0.847606654356    4.426959860614    0.000000000000
 H   -1.732259664634    3.782660008444    0.000000000000
 H   -0.864398168233    5.072017492134   -0.890469984435
 H   -0.864398168233    5.072017492134    0.890469984435
