19

 C    0.843698611263   -4.452474285416    0.000000000000
 C   -0.401571388737   -3.599354285416    0.000000000000
 N   -1.578251388737   -4.257704285416    0.000000000000
 H   -2.445051388737   -3.734804285416    0.000000000000
 H   -1.618031388737   -5.267804285416    0.000000000000
 O   -0.360141388737   -2.349724285416    0.000000000000
 H    1.728348611263   -3.808174285416    0.000000000000
 H    0.860488611263   -5.097524285416    0.890470000000
 H    0.860488611263   -5.097524285416   -0.890470000000
NA   -0.035201388737   -0.229674285416    0.000000000000
 O    0.373850759299    2.439159980736    0.000000000000
 C    0.415276985991    3.688793515074    0.000000000000
 N    1.591956082544    4.347139998800    0.000000000000
 H    2.458760074318    3.824241943779    0.000000000000
 H    1.631742352681    5.357240022903    0.000000000000
 C   -0.829987505147    4.541914859322    0.000000000000
 H   -1.714640515425    3.897615007152    0.000000000000
 H   -0.846779019024    5.186972490842   -0.890469984435
 H   -0.846779019024    5.186972490842    0.890469984435
