19

 C    0.837358106311   -4.493842499623    0.000000000000
 C   -0.407911893689   -3.640722499623    0.000000000000
 N   -1.584591893689   -4.299072499623    0.000000000000
 H   -2.451391893689   -3.776172499623    0.000000000000
 H   -1.624371893689   -5.309172499623    0.000000000000
 O   -0.366481893689   -2.391092499623    0.000000000000
 H    1.722008106311   -3.849542499623    0.000000000000
 H    0.854148106311   -5.138892499623    0.890470000000
 H    0.854148106311   -5.138892499623   -0.890470000000
NA   -0.041541893689   -0.271042499623    0.000000000000
 O    0.382660333904    2.496637480090    0.000000000000
 C    0.424086560595    3.746271014428    0.000000000000
 N    1.600765657148    4.404617498154    0.000000000000
 H    2.467569648922    3.881719443133    0.000000000000
 H    1.640551927286    5.414717522257    0.000000000000
 C   -0.821177930543    4.599392358676    0.000000000000
 H   -1.705830940820    3.955092506506    0.000000000000
 H   -0.837969444420    5.244449990196   -0.890469984435
 H   -0.837969444420    5.244449990196    0.890469984435
