19

 C    0.824677096406   -4.576578928037    0.000000000000
 C   -0.420592903594   -3.723458928037    0.000000000000
 N   -1.597272903594   -4.381808928037    0.000000000000
 H   -2.464072903594   -3.858908928037    0.000000000000
 H   -1.637052903594   -5.391908928037    0.000000000000
 O   -0.379162903594   -2.473828928037    0.000000000000
 H    1.709327096406   -3.932278928037    0.000000000000
 H    0.841467096406   -5.221628928037    0.890470000000
 H    0.841467096406   -5.221628928037   -0.890470000000
NA   -0.054222903594   -0.353778928037    0.000000000000
 O    0.400279483113    2.611592478798    0.000000000000
 C    0.441705709804    3.861226013136    0.000000000000
 N    1.618384806357    4.519572496862    0.000000000000
 H    2.485188798131    3.996674441841    0.000000000000
 H    1.658171076495    5.529672520965    0.000000000000
 C   -0.803558781334    4.714347357384    0.000000000000
 H   -1.688211791612    4.070047505214    0.000000000000
 H   -0.820350295211    5.359404988905   -0.890469984435
 H   -0.820350295211    5.359404988905    0.890469984435
