19

 C    0.811996086501   -4.659315356451    0.000000000000
 C   -0.433273913499   -3.806195356451    0.000000000000
 N   -1.609953913499   -4.464545356451    0.000000000000
 H   -2.476753913499   -3.941645356451    0.000000000000
 H   -1.649733913499   -5.474645356451    0.000000000000
 O   -0.391843913499   -2.556565356451    0.000000000000
 H    1.696646086501   -4.015015356451    0.000000000000
 H    0.828786086501   -5.304365356451    0.890470000000
 H    0.828786086501   -5.304365356451   -0.890470000000
NA   -0.066903913499   -0.436515356451    0.000000000000
 O    0.417898632322    2.726547477507    0.000000000000
 C    0.459324859013    3.976181011845    0.000000000000
 N    1.636003955566    4.634527495570    0.000000000000
 H    2.502807947340    4.111629440549    0.000000000000
 H    1.675790225704    5.644627519674    0.000000000000
 C   -0.785939632125    4.829302356093    0.000000000000
 H   -1.670592642403    4.185002503923    0.000000000000
 H   -0.802731146002    5.474359987613   -0.890469984435
 H   -0.802731146002    5.474359987613    0.890469984435
