19

 C    0.792974571644   -4.783419999072    0.000000000000
 C   -0.452295428356   -3.930299999072    0.000000000000
 N   -1.628975428356   -4.588649999072    0.000000000000
 H   -2.495775428356   -4.065749999072    0.000000000000
 H   -1.668755428356   -5.598749999072    0.000000000000
 O   -0.410865428356   -2.680669999072    0.000000000000
 H    1.677624571644   -4.139119999072    0.000000000000
 H    0.809764571644   -5.428469999072    0.890470000000
 H    0.809764571644   -5.428469999072   -0.890470000000
NA   -0.085925428356   -0.560619999072    0.000000000000
 O    0.444327356135    2.898979975569    0.000000000000
 C    0.485753582826    4.148613509907    0.000000000000
 N    1.662432679380    4.806959993633    0.000000000000
 H    2.529236671154    4.284061938612    0.000000000000
 H    1.702218949517    5.817060017736    0.000000000000
 C   -0.759510908312    5.001734854155    0.000000000000
 H   -1.644163918589    4.357435001985    0.000000000000
 H   -0.776302422189    5.646792485675   -0.890469984435
 H   -0.776302422189    5.646792485675    0.890469984435
