19

 C    0.754931541929   -5.031629284315    0.000000000000
 C   -0.490338458071   -4.178509284315    0.000000000000
 N   -1.667018458071   -4.836859284315    0.000000000000
 H   -2.533818458071   -4.313959284315    0.000000000000
 H   -1.706798458071   -5.846959284315    0.000000000000
 O   -0.448908458071   -2.928879284315    0.000000000000
 H    1.639581541929   -4.387329284315    0.000000000000
 H    0.771721541929   -5.676679284315    0.890470000000
 H    0.771721541929   -5.676679284315   -0.890470000000
NA   -0.123968458071   -0.808829284315    0.000000000000
 O    0.497184803761    3.243844971694    0.000000000000
 C    0.538611030453    4.493478506032    0.000000000000
 N    1.715290127006    5.151824989758    0.000000000000
 H    2.582094118780    4.628926934737    0.000000000000
 H    1.755076397144    6.161925013861    0.000000000000
 C   -0.706653460685    5.346599850280    0.000000000000
 H   -1.591306470963    4.702299998110    0.000000000000
 H   -0.723444974562    5.991657481800   -0.890469984435
 H   -0.723444974562    5.991657481800    0.890469984435
