19

 C    0.748591036977   -5.072997498522    0.000000000000
 C   -0.496678963023   -4.219877498522    0.000000000000
 N   -1.673358963023   -4.878227498522    0.000000000000
 H   -2.540158963023   -4.355327498522    0.000000000000
 H   -1.713138963023   -5.888327498522    0.000000000000
 O   -0.455248963023   -2.970247498522    0.000000000000
 H    1.633241036977   -4.428697498522    0.000000000000
 H    0.765381036977   -5.718047498522    0.890470000000
 H    0.765381036977   -5.718047498522   -0.890470000000
NA   -0.130308963023   -0.850197498522    0.000000000000
 O    0.505994378366    3.301322471048    0.000000000000
 C    0.547420605057    4.550956005386    0.000000000000
 N    1.724099701611    5.209302489112    0.000000000000
 H    2.590903693385    4.686404434091    0.000000000000
 H    1.763885971748    6.219402513215    0.000000000000
 C   -0.697843886080    5.404077349634    0.000000000000
 H   -1.582496896358    4.759777497464    0.000000000000
 H   -0.714635399958    6.049134981154   -0.890469984435
 H   -0.714635399958    6.049134981154    0.890469984435
