19

 C    0.742250532024   -5.114365712729    0.000000000000
 C   -0.503019467976   -4.261245712729    0.000000000000
 N   -1.679699467976   -4.919595712729    0.000000000000
 H   -2.546499467976   -4.396695712729    0.000000000000
 H   -1.719479467976   -5.929695712729    0.000000000000
 O   -0.461589467976   -3.011615712729    0.000000000000
 H    1.626900532024   -4.470065712729    0.000000000000
 H    0.759040532024   -5.759415712729    0.890470000000
 H    0.759040532024   -5.759415712729   -0.890470000000
NA   -0.136649467976   -0.891565712729    0.000000000000
 O    0.514803952970    3.358799970402    0.000000000000
 C    0.556230179662    4.608433504740    0.000000000000
 N    1.732909276215    5.266779988466    0.000000000000
 H    2.599713267989    4.743881933445    0.000000000000
 H    1.772695546352    6.276880012569    0.000000000000
 C   -0.689034311476    5.461554848988    0.000000000000
 H   -1.573687321754    4.817254996818    0.000000000000
 H   -0.705825825353    6.106612480509   -0.890469984435
 H   -0.705825825353    6.106612480509    0.890469984435
