19

 C    0.723229017167   -5.238470355350    0.000000000000
 C   -0.522040982833   -4.385350355350    0.000000000000
 N   -1.698720982833   -5.043700355350    0.000000000000
 H   -2.565520982833   -4.520800355350    0.000000000000
 H   -1.738500982833   -6.053800355350    0.000000000000
 O   -0.480610982833   -3.135720355350    0.000000000000
 H    1.607879017167   -4.594170355350    0.000000000000
 H    0.740019017167   -5.883520355350    0.890470000000
 H    0.740019017167   -5.883520355350   -0.890470000000
NA   -0.155670982833   -1.015670355350    0.000000000000
 O    0.541232676784    3.531232468465    0.000000000000
 C    0.582658903475    4.780866002803    0.000000000000
 N    1.759338000028    5.439212486529    0.000000000000
 H    2.626141991802    4.916314431508    0.000000000000
 H    1.799124270166    6.449312510632    0.000000000000
 C   -0.662605587663    5.633987347051    0.000000000000
 H   -1.547258597941    4.989687494881    0.000000000000
 H   -0.679397101540    6.279044978571   -0.890469984435
 H   -0.679397101540    6.279044978571    0.890469984435
