19

 C    0.704207502310   -5.362574997971    0.000000000000
 C   -0.541062497690   -4.509454997971    0.000000000000
 N   -1.717742497690   -5.167804997971    0.000000000000
 H   -2.584542497690   -4.644904997971    0.000000000000
 H   -1.757522497690   -6.177904997971    0.000000000000
 O   -0.499632497690   -3.259824997971    0.000000000000
 H    1.588857502310   -4.718274997971    0.000000000000
 H    0.720997502310   -6.007624997971    0.890470000000
 H    0.720997502310   -6.007624997971   -0.890470000000
NA   -0.174692497690   -1.139774997971    0.000000000000
 O    0.567661400597    3.703664966527    0.000000000000
 C    0.609087627288    4.953298500865    0.000000000000
 N    1.785766723842    5.611644984591    0.000000000000
 H    2.652570715616    5.088746929570    0.000000000000
 H    1.825552993979    6.621745008694    0.000000000000
 C   -0.636176863849    5.806419845113    0.000000000000
 H   -1.520829874127    5.162119992943    0.000000000000
 H   -0.652968377727    6.451477476633   -0.890469984435
 H   -0.652968377727    6.451477476633    0.890469984435
