19

 C    0.697866997357   -5.403943212178    0.000000000000
 C   -0.547403002643   -4.550823212178    0.000000000000
 N   -1.724083002643   -5.209173212178    0.000000000000
 H   -2.590883002643   -4.686273212178    0.000000000000
 H   -1.763863002643   -6.219273212178    0.000000000000
 O   -0.505973002643   -3.301193212178    0.000000000000
 H    1.582516997357   -4.759643212178    0.000000000000
 H    0.714656997357   -6.048993212178    0.890470000000
 H    0.714656997357   -6.048993212178   -0.890470000000
NA   -0.181033002643   -1.181143212178    0.000000000000
 O    0.576470975201    3.761142465881    0.000000000000
 C    0.617897201893    5.010776000219    0.000000000000
 N    1.794576298446    5.669122483945    0.000000000000
 H    2.661380290220    5.146224428924    0.000000000000
 H    1.834362568584    6.679222508049    0.000000000000
 C   -0.627367289245    5.863897344468    0.000000000000
 H   -1.512020299523    5.219597492298    0.000000000000
 H   -0.644158803122    6.508954975988   -0.890469984435
 H   -0.644158803122    6.508954975988    0.890469984435
