19

 C    0.672504977547   -5.569416069006    0.000000000000
 C   -0.572765022453   -4.716296069006    0.000000000000
 N   -1.749445022453   -5.374646069006    0.000000000000
 H   -2.616245022453   -4.851746069006    0.000000000000
 H   -1.789225022453   -6.384746069006    0.000000000000
 O   -0.531335022453   -3.466666069006    0.000000000000
 H    1.557154977547   -4.925116069006    0.000000000000
 H    0.689294977547   -6.214466069006    0.890470000000
 H    0.689294977547   -6.214466069006   -0.890470000000
NA   -0.206395022453   -1.346616069006    0.000000000000
 O    0.611709273619    3.991052463298    0.000000000000
 C    0.653135500310    5.240685997636    0.000000000000
 N    1.829814596864    5.899032481362    0.000000000000
 H    2.696618588638    5.376134426341    0.000000000000
 H    1.869600867001    6.909132505465    0.000000000000
 C   -0.592128990827    6.093807341884    0.000000000000
 H   -1.476782001105    5.449507489714    0.000000000000
 H   -0.608920504704    6.738864973404   -0.890469984435
 H   -0.608920504704    6.738864973404    0.890469984435
