19

 C    0.653483462690   -5.693520711627    0.000000000000
 C   -0.591786537310   -4.840400711627    0.000000000000
 N   -1.768466537310   -5.498750711627    0.000000000000
 H   -2.635266537310   -4.975850711627    0.000000000000
 H   -1.808246537310   -6.508850711627    0.000000000000
 O   -0.550356537310   -3.590770711627    0.000000000000
 H    1.538133462690   -5.049220711627    0.000000000000
 H    0.670273462690   -6.338570711627    0.890470000000
 H    0.670273462690   -6.338570711627   -0.890470000000
NA   -0.225416537310   -1.470720711627    0.000000000000
 O    0.638137997432    4.163484961360    0.000000000000
 C    0.679564224124    5.413118495698    0.000000000000
 N    1.856243320677    6.071464979424    0.000000000000
 H    2.723047312451    5.548566924403    0.000000000000
 H    1.896029590815    7.081565003528    0.000000000000
 C   -0.565700267014    6.266239839947    0.000000000000
 H   -1.450353277292    5.621939987777    0.000000000000
 H   -0.582491780891    6.911297471467   -0.890469984435
 H   -0.582491780891    6.911297471467    0.890469984435
