19

 C    0.615440432975   -5.941729996869    0.000000000000
 C   -0.629829567025   -5.088609996869    0.000000000000
 N   -1.806509567025   -5.746959996869    0.000000000000
 H   -2.673309567025   -5.224059996869    0.000000000000
 H   -1.846289567025   -6.757059996869    0.000000000000
 O   -0.588399567025   -3.838979996869    0.000000000000
 H    1.500090432975   -5.297429996869    0.000000000000
 H    0.632230432975   -6.586779996869    0.890470000000
 H    0.632230432975   -6.586779996869   -0.890470000000
NA   -0.263459567025   -1.718929996869    0.000000000000
 O    0.690995445059    4.508349957485    0.000000000000
 C    0.732421671750    5.757983491823    0.000000000000
 N    1.909100768304    6.416329975549    0.000000000000
 H    2.775904760078    5.893431920528    0.000000000000
 H    1.948887038441    7.426429999653    0.000000000000
 C   -0.512842819387    6.611104836072    0.000000000000
 H   -1.397495829665    5.966804983902    0.000000000000
 H   -0.529634333264    7.256162467592   -0.890469984435
 H   -0.529634333264    7.256162467592    0.890469984435
