19

 C    0.609099928023   -5.983098211076    0.000000000000
 C   -0.636170071977   -5.129978211076    0.000000000000
 N   -1.812850071977   -5.788328211076    0.000000000000
 H   -2.679650071977   -5.265428211076    0.000000000000
 H   -1.852630071977   -6.798428211076    0.000000000000
 O   -0.594740071977   -3.880348211076    0.000000000000
 H    1.493749928023   -5.338798211076    0.000000000000
 H    0.625889928023   -6.628148211076    0.890470000000
 H    0.625889928023   -6.628148211076   -0.890470000000
NA   -0.269800071977   -1.760298211076    0.000000000000
 O    0.699805019664    4.565827456840    0.000000000000
 C    0.741231246355    5.815460991178    0.000000000000
 N    1.917910342908    6.473807474903    0.000000000000
 H    2.784714334682    5.950909419882    0.000000000000
 H    1.957696613046    7.483907499007    0.000000000000
 C   -0.504033244783    6.668582335426    0.000000000000
 H   -1.388686255061    6.024282483256    0.000000000000
 H   -0.520824758660    7.313639966946   -0.890469984435
 H   -0.520824758660    7.313639966946    0.890469984435
