19

 C    0.602759423071   -6.024466425283    0.000000000000
 C   -0.642510576929   -5.171346425283    0.000000000000
 N   -1.819190576929   -5.829696425283    0.000000000000
 H   -2.685990576929   -5.306796425283    0.000000000000
 H   -1.858970576929   -6.839796425283    0.000000000000
 O   -0.601080576929   -3.921716425283    0.000000000000
 H    1.487409423071   -5.380166425283    0.000000000000
 H    0.619549423071   -6.669516425283    0.890470000000
 H    0.619549423071   -6.669516425283   -0.890470000000
NA   -0.276140576929   -1.801666425283    0.000000000000
 O    0.708614594268    4.623304956194    0.000000000000
 C    0.750040820959    5.872938490532    0.000000000000
 N    1.926719917513    6.531284974257    0.000000000000
 H    2.793523909287    6.008386919236    0.000000000000
 H    1.966506187650    7.541384998361    0.000000000000
 C   -0.495223670178    6.726059834780    0.000000000000
 H   -1.379876680456    6.081759982610    0.000000000000
 H   -0.512015184056    7.371117466300   -0.890469984435
 H   -0.512015184056    7.371117466300    0.890469984435
