19

 C    0.558375888403   -6.314043924733    0.000000000000
 C   -0.686894111597   -5.460923924733    0.000000000000
 N   -1.863574111597   -6.119273924733    0.000000000000
 H   -2.730374111597   -5.596373924733    0.000000000000
 H   -1.903354111597   -7.129373924733    0.000000000000
 O   -0.645464111597   -4.211293924733    0.000000000000
 H    1.443025888403   -5.669743924733    0.000000000000
 H    0.575165888403   -6.959093924733    0.890470000000
 H    0.575165888403   -6.959093924733   -0.890470000000
NA   -0.320524111597   -2.091243924733    0.000000000000
 O    0.770281616499    5.025647451673    0.000000000000
 C    0.811707843190    6.275280986011    0.000000000000
 N    1.988386939744    6.933627469737    0.000000000000
 H    2.855190931518    6.410729414716    0.000000000000
 H    2.028173209881    7.943727493840    0.000000000000
 C   -0.433556647947    7.128402330259    0.000000000000
 H   -1.318209658225    6.484102478089    0.000000000000
 H   -0.450348161824    7.773459961779   -0.890469984435
 H   -0.450348161824    7.773459961779    0.890469984435
