19

 C    0.552035383451   -6.355412138940    0.000000000000
 C   -0.693234616549   -5.502292138940    0.000000000000
 N   -1.869914616549   -6.160642138940    0.000000000000
 H   -2.736714616549   -5.637742138940    0.000000000000
 H   -1.909694616549   -7.170742138940    0.000000000000
 O   -0.651804616549   -4.252662138940    0.000000000000
 H    1.436685383451   -5.711112138940    0.000000000000
 H    0.568825383451   -7.000462138940    0.890470000000
 H    0.568825383451   -7.000462138940   -0.890470000000
NA   -0.326864616549   -2.132612138940    0.000000000000
 O    0.779091191103    5.083124951027    0.000000000000
 C    0.820517417795    6.332758485365    0.000000000000
 N    1.997196514348    6.991104969091    0.000000000000
 H    2.864000506122    6.468206914070    0.000000000000
 H    2.036982784486    8.001204993194    0.000000000000
 C   -0.424747073343    7.185879829613    0.000000000000
 H   -1.309400083621    6.541579977443    0.000000000000
 H   -0.441538587220    7.830937461133   -0.890469984435
 H   -0.441538587220    7.830937461133    0.890469984435
