19

 C    0.545694878499   -6.396780353147    0.000000000000
 C   -0.699575121501   -5.543660353147    0.000000000000
 N   -1.876255121501   -6.202010353147    0.000000000000
 H   -2.743055121501   -5.679110353147    0.000000000000
 H   -1.916035121501   -7.212110353147    0.000000000000
 O   -0.658145121501   -4.294030353147    0.000000000000
 H    1.430344878499   -5.752480353147    0.000000000000
 H    0.562484878499   -7.041830353147    0.890470000000
 H    0.562484878499   -7.041830353147   -0.890470000000
NA   -0.333205121501   -2.173980353147    0.000000000000
 O    0.787900765708    5.140602450381    0.000000000000
 C    0.829326992399    6.390235984719    0.000000000000
 N    2.006006088953    7.048582468445    0.000000000000
 H    2.872810080727    6.525684413424    0.000000000000
 H    2.045792359090    8.058682492548    0.000000000000
 C   -0.415937498738    7.243357328967    0.000000000000
 H   -1.300590509016    6.599057476797    0.000000000000
 H   -0.432729012616    7.888414960487   -0.890469984435
 H   -0.432729012616    7.888414960487    0.890469984435
