19

 C    0.520332858689   -6.562253209975    0.000000000000
 C   -0.724937141311   -5.709133209975    0.000000000000
 N   -1.901617141311   -6.367483209975    0.000000000000
 H   -2.768417141311   -5.844583209975    0.000000000000
 H   -1.941397141311   -7.377583209975    0.000000000000
 O   -0.683507141311   -4.459503209975    0.000000000000
 H    1.404982858689   -5.917953209975    0.000000000000
 H    0.537122858689   -7.207303209975    0.890470000000
 H    0.537122858689   -7.207303209975   -0.890470000000
NA   -0.358567141311   -2.339453209975    0.000000000000
 O    0.823139064126    5.370512447798    0.000000000000
 C    0.864565290817    6.620145982136    0.000000000000
 N    2.041244387370    7.278492465861    0.000000000000
 H    2.908048379144    6.755594410840    0.000000000000
 H    2.081030657508    8.288592489965    0.000000000000
 C   -0.380699200321    7.473267326384    0.000000000000
 H   -1.265352210599    6.828967474214    0.000000000000
 H   -0.397490714198    8.118324957904   -0.890469984435
 H   -0.397490714198    8.118324957904    0.890469984435
