19

 C    0.488630333926   -6.769094281010    0.000000000000
 C   -0.756639666074   -5.915974281010    0.000000000000
 N   -1.933319666074   -6.574324281010    0.000000000000
 H   -2.800119666074   -6.051424281010    0.000000000000
 H   -1.973099666074   -7.584424281010    0.000000000000
 O   -0.715209666074   -4.666344281010    0.000000000000
 H    1.373280333926   -6.124794281010    0.000000000000
 H    0.505420333926   -7.414144281010    0.890470000000
 H    0.505420333926   -7.414144281010   -0.890470000000
NA   -0.390269666074   -2.546294281010    0.000000000000
 O    0.867186937148    5.657899944568    0.000000000000
 C    0.908613163839    6.907533478906    0.000000000000
 N    2.085292260393    7.565879962632    0.000000000000
 H    2.952096252167    7.042981907611    0.000000000000
 H    2.125078530530    8.575979986736    0.000000000000
 C   -0.336651327299    7.760654823155    0.000000000000
 H   -1.221304337576    7.116354970985    0.000000000000
 H   -0.353442841176    8.405712454675   -0.890469984435
 H   -0.353442841176    8.405712454675    0.890469984435
