19

 C    0.482289828974   -6.810462495217    0.000000000000
 C   -0.762980171026   -5.957342495217    0.000000000000
 N   -1.939660171026   -6.615692495217    0.000000000000
 H   -2.806460171026   -6.092792495217    0.000000000000
 H   -1.979440171026   -7.625792495217    0.000000000000
 O   -0.721550171026   -4.707712495217    0.000000000000
 H    1.366939828974   -6.166162495217    0.000000000000
 H    0.499079828974   -7.455512495217    0.890470000000
 H    0.499079828974   -7.455512495217   -0.890470000000
NA   -0.396610171026   -2.587662495217    0.000000000000
 O    0.875996511752    5.715377443923    0.000000000000
 C    0.917422738444    6.965010978261    0.000000000000
 N    2.094101834997    7.623357461986    0.000000000000
 H    2.960905826771    7.100459406965    0.000000000000
 H    2.133888105134    8.633457486090    0.000000000000
 C   -0.327841752694    7.818132322509    0.000000000000
 H   -1.212494762972    7.173832470339    0.000000000000
 H   -0.344633266571    8.463189954029   -0.890469984435
 H   -0.344633266571    8.463189954029    0.890469984435
