19

 C    0.469608819069   -6.893198923631    0.000000000000
 C   -0.775661180931   -6.040078923631    0.000000000000
 N   -1.952341180931   -6.698428923631    0.000000000000
 H   -2.819141180931   -6.175528923631    0.000000000000
 H   -1.992121180931   -7.708528923631    0.000000000000
 O   -0.734231180931   -4.790448923631    0.000000000000
 H    1.354258819069   -6.248898923631    0.000000000000
 H    0.486398819069   -7.538248923631    0.890470000000
 H    0.486398819069   -7.538248923631   -0.890470000000
NA   -0.409291180931   -2.670398923631    0.000000000000
 O    0.893615660961    5.830332442631    0.000000000000
 C    0.935041887652    7.079965976969    0.000000000000
 N    2.111720984206    7.738312460695    0.000000000000
 H    2.978524975980    7.215414405674    0.000000000000
 H    2.151507254343    8.748412484798    0.000000000000
 C   -0.310222603485    7.933087321217    0.000000000000
 H   -1.194875613763    7.288787469047    0.000000000000
 H   -0.327014117362    8.578144952737   -0.890469984435
 H   -0.327014117362    8.578144952737    0.890469984435
