19

 C    0.450587304212   -7.017303566252    0.000000000000
 C   -0.794682695788   -6.164183566252    0.000000000000
 N   -1.971362695788   -6.822533566252    0.000000000000
 H   -2.838162695788   -6.299633566252    0.000000000000
 H   -2.011142695788   -7.832633566252    0.000000000000
 O   -0.753252695788   -4.914553566252    0.000000000000
 H    1.335237304212   -6.373003566252    0.000000000000
 H    0.467377304212   -7.662353566252    0.890470000000
 H    0.467377304212   -7.662353566252   -0.890470000000
NA   -0.428312695788   -2.794503566252    0.000000000000
 O    0.920044384774    6.002764940693    0.000000000000
 C    0.961470611466    7.252398475031    0.000000000000
 N    2.138149708019    7.910744958757    0.000000000000
 H    3.004953699793    7.387846903736    0.000000000000
 H    2.177935978157    8.920844982861    0.000000000000
 C   -0.283793879672    8.105519819280    0.000000000000
 H   -1.168446889950    7.461219967110    0.000000000000
 H   -0.300585393549    8.750577450800   -0.890469984435
 H   -0.300585393549    8.750577450800    0.890469984435
