19

 C    0.437906294307   -7.100039994666    0.000000000000
 C   -0.807363705693   -6.246919994666    0.000000000000
 N   -1.984043705693   -6.905269994666    0.000000000000
 H   -2.850843705693   -6.382369994666    0.000000000000
 H   -2.023823705693   -7.915369994666    0.000000000000
 O   -0.765933705693   -4.997289994666    0.000000000000
 H    1.322556294307   -6.455739994666    0.000000000000
 H    0.454696294307   -7.745089994666    0.890470000000
 H    0.454696294307   -7.745089994666   -0.890470000000
NA   -0.440993705693   -2.877239994666    0.000000000000
 O    0.937663533983    6.117719939402    0.000000000000
 C    0.979089760675    7.367353473740    0.000000000000
 N    2.155768857228    8.025699957465    0.000000000000
 H    3.022572849002    7.502801902444    0.000000000000
 H    2.195555127365    9.035799981569    0.000000000000
 C   -0.266174730463    8.220474817988    0.000000000000
 H   -1.150827740741    7.576174965818    0.000000000000
 H   -0.282966244340    8.865532449508   -0.890469984435
 H   -0.282966244340    8.865532449508    0.890469984435
