19

 C    0.425225284402   -7.182776423080    0.000000000000
 C   -0.820044715598   -6.329656423080    0.000000000000
 N   -1.996724715598   -6.988006423080    0.000000000000
 H   -2.863524715598   -6.465106423080    0.000000000000
 H   -2.036504715598   -7.998106423080    0.000000000000
 O   -0.778614715598   -5.080026423080    0.000000000000
 H    1.309875284402   -6.538476423080    0.000000000000
 H    0.442015284402   -7.827826423080    0.890470000000
 H    0.442015284402   -7.827826423080   -0.890470000000
NA   -0.453674715598   -2.959976423080    0.000000000000
 O    0.955282683192    6.232674938110    0.000000000000
 C    0.996708909883    7.482308472448    0.000000000000
 N    2.173388006437    8.140654956174    0.000000000000
 H    3.040191998211    7.617756901153    0.000000000000
 H    2.213174276574    9.150754980277    0.000000000000
 C   -0.248555581254    8.335429816696    0.000000000000
 H   -1.133208591532    7.691129964526    0.000000000000
 H   -0.265347095131    8.980487448216   -0.890469984435
 H   -0.265347095131    8.980487448216    0.890469984435
