19

 C    0.418884779450   -7.224144637287    0.000000000000
 C   -0.826385220550   -6.371024637287    0.000000000000
 N   -2.003065220550   -7.029374637287    0.000000000000
 H   -2.869865220550   -6.506474637287    0.000000000000
 H   -2.042845220550   -8.039474637287    0.000000000000
 O   -0.784955220550   -5.121394637287    0.000000000000
 H    1.303534779450   -6.579844637287    0.000000000000
 H    0.435674779450   -7.869194637287    0.890470000000
 H    0.435674779450   -7.869194637287   -0.890470000000
NA   -0.460015220550   -3.001344637287    0.000000000000
 O    0.964092257797    6.290152437464    0.000000000000
 C    1.005518484488    7.539785971802    0.000000000000
 N    2.182197581041    8.198132455528    0.000000000000
 H    3.049001572815    7.675234400507    0.000000000000
 H    2.221983851179    9.208232479631    0.000000000000
 C   -0.239746006650    8.392907316050    0.000000000000
 H   -1.124399016928    7.748607463880    0.000000000000
 H   -0.256537520527    9.037964947570   -0.890469984435
 H   -0.256537520527    9.037964947570    0.890469984435
