7

 H   -1.829299664740    1.825220045334    0.000000000000
 H   -0.289740664740    1.916199045334    0.902247000000
 H   -0.289740664740    1.916199045334   -0.902247000000
 C   -0.773551664740    1.519679045334    0.000000000000
 S   -0.773551664740   -0.313046954666    0.000000000000
 H    0.567031335260   -0.469437954666    0.000000000000
NA    1.560295356965   -0.585311088682    0.000000000000
