7

 H   -1.893629571846    1.832724704503    0.000000000000
 H   -0.354070571846    1.923703704503    0.902247000000
 H   -0.354070571846    1.923703704503   -0.902247000000
 C   -0.837881571846    1.527183704503    0.000000000000
 S   -0.837881571846   -0.305542295497    0.000000000000
 H    0.502701428154   -0.461933295497    0.000000000000
NA    1.694618254200   -0.600981056316    0.000000000000
