7

 H   -1.925794525399    1.836477034087    0.000000000000
 H   -0.386235525399    1.927456034087    0.902247000000
 H   -0.386235525399    1.927456034087   -0.902247000000
 C   -0.870046525399    1.530936034087    0.000000000000
 S   -0.870046525399   -0.301789965913    0.000000000000
 H    0.470536474601   -0.458180965913    0.000000000000
NA    1.761779702818   -0.608816040133    0.000000000000
