7

 H   -2.022289386058    1.847734022840    0.000000000000
 H   -0.482730386058    1.938713022840    0.902247000000
 H   -0.482730386058    1.938713022840   -0.902247000000
 C   -0.966541386058    1.542193022840    0.000000000000
 S   -0.966541386058   -0.290532977160    0.000000000000
 H    0.374041613942   -0.446923977160    0.000000000000
NA    1.963264048670   -0.632320991585    0.000000000000
