7

 H   -2.118784246717    1.858991011593    0.000000000000
 H   -0.579225246717    1.949970011593    0.902247000000
 H   -0.579225246717    1.949970011593   -0.902247000000
 C   -1.063036246717    1.553450011593    0.000000000000
 S   -1.063036246717   -0.279275988407    0.000000000000
 H    0.277546753283   -0.435666988407    0.000000000000
NA    2.164748394522   -0.655825943037    0.000000000000
