7

 H   -2.247444060929    1.874000329930    0.000000000000
 H   -0.707885060929    1.964979329930    0.902247000000
 H   -0.707885060929    1.964979329930   -0.902247000000
 C   -1.191696060929    1.568459329930    0.000000000000
 S   -1.191696060929   -0.264266670070    0.000000000000
 H    0.148886939071   -0.420657670070    0.000000000000
NA    2.433394188992   -0.687165878306    0.000000000000
