7

 H   -2.311773968035    1.881504989099    0.000000000000
 H   -0.772214968035    1.972483989099    0.902247000000
 H   -0.772214968035    1.972483989099   -0.902247000000
 C   -1.256025968035    1.575963989099    0.000000000000
 S   -1.256025968035   -0.256762010901    0.000000000000
 H    0.084557031965   -0.413153010901    0.000000000000
NA    2.567717086227   -0.702835845941    0.000000000000
