7

 H   -2.343938921588    1.885257318683    0.000000000000
 H   -0.804379921588    1.976236318683    0.902247000000
 H   -0.804379921588    1.976236318683   -0.902247000000
 C   -1.288190921588    1.579716318683    0.000000000000
 S   -1.288190921588   -0.253009681317    0.000000000000
 H    0.052392078412   -0.409400681317    0.000000000000
NA    2.634878534845   -0.710670829758    0.000000000000
