7

 H   -2.408268828694    1.892761977852    0.000000000000
 H   -0.868709828694    1.983740977852    0.902247000000
 H   -0.868709828694    1.983740977852   -0.902247000000
 C   -1.352520828694    1.587220977852    0.000000000000
 S   -1.352520828694   -0.245505022148    0.000000000000
 H   -0.011937828694   -0.401896022148    0.000000000000
NA    2.769201432079   -0.726340797393    0.000000000000
