7

 H   -2.440433782247    1.896514307436    0.000000000000
 H   -0.900874782247    1.987493307436    0.902247000000
 H   -0.900874782247    1.987493307436   -0.902247000000
 C   -1.384685782247    1.590973307436    0.000000000000
 S   -1.384685782247   -0.241752692564    0.000000000000
 H   -0.044102782247   -0.398143692564    0.000000000000
NA    2.836362880697   -0.734175781210    0.000000000000
