7

 H   -2.472598735800    1.900266637020    0.000000000000
 H   -0.933039735800    1.991245637020    0.902247000000
 H   -0.933039735800    1.991245637020   -0.902247000000
 C   -1.416850735800    1.594725637020    0.000000000000
 S   -1.416850735800   -0.238000362980    0.000000000000
 H   -0.076267735800   -0.394391362980    0.000000000000
NA    2.903524329314   -0.742010765027    0.000000000000
