7

 H   -2.536928642906    1.907771296189    0.000000000000
 H   -0.997369642906    1.998750296189    0.902247000000
 H   -0.997369642906    1.998750296189   -0.902247000000
 C   -1.481180642906    1.602230296189    0.000000000000
 S   -1.481180642906   -0.230495703811    0.000000000000
 H   -0.140597642906   -0.386886703811    0.000000000000
NA    3.037847226549   -0.757680732662    0.000000000000
