7

 H   -2.569093596459    1.911523625773    0.000000000000
 H   -1.029534596459    2.002502625773    0.902247000000
 H   -1.029534596459    2.002502625773   -0.902247000000
 C   -1.513345596459    1.605982625773    0.000000000000
 S   -1.513345596459   -0.226743374227    0.000000000000
 H   -0.172762596459   -0.383134374227    0.000000000000
NA    3.105008675167   -0.765515716479    0.000000000000
