7

 H   -2.633423503565    1.919028284942    0.000000000000
 H   -1.093864503565    2.010007284942    0.902247000000
 H   -1.093864503565    2.010007284942   -0.902247000000
 C   -1.577675503565    1.613487284942    0.000000000000
 S   -1.577675503565   -0.219238715058    0.000000000000
 H   -0.237092503565   -0.375629715058    0.000000000000
NA    3.239331572402   -0.781185684114    0.000000000000
