7

 H   -2.665588457118    1.922780614526    0.000000000000
 H   -1.126029457118    2.013759614526    0.902247000000
 H   -1.126029457118    2.013759614526   -0.902247000000
 C   -1.609840457118    1.617239614526    0.000000000000
 S   -1.609840457118   -0.215486385474    0.000000000000
 H   -0.269257457118   -0.371877385474    0.000000000000
NA    3.306493021019   -0.789020667931    0.000000000000
