7

 H   -2.697753410671    1.926532944111    0.000000000000
 H   -1.158194410671    2.017511944111    0.902247000000
 H   -1.158194410671    2.017511944111   -0.902247000000
 C   -1.642005410671    1.620991944111    0.000000000000
 S   -1.642005410671   -0.211734055889    0.000000000000
 H   -0.301422410671   -0.368125055889    0.000000000000
NA    3.373654469637   -0.796855651748    0.000000000000
