7

 H   -2.729918364225    1.930285273695    0.000000000000
 H   -1.190359364225    2.021264273695    0.902247000000
 H   -1.190359364225    2.021264273695   -0.902247000000
 C   -1.674170364225    1.624744273695    0.000000000000
 S   -1.674170364225   -0.207981726305    0.000000000000
 H   -0.333587364225   -0.364372726305    0.000000000000
NA    3.440815918254   -0.804690635566    0.000000000000
