7

 H   -2.826413224884    1.941542262448    0.000000000000
 H   -1.286854224884    2.032521262448    0.902247000000
 H   -1.286854224884    2.032521262448   -0.902247000000
 C   -1.770665224884    1.636001262448    0.000000000000
 S   -1.770665224884   -0.196724737552    0.000000000000
 H   -0.430082224884   -0.353115737552    0.000000000000
NA    3.642300264106   -0.828195587017    0.000000000000
