7

 H   -2.858578178437    1.945294592032    0.000000000000
 H   -1.319019178437    2.036273592032    0.902247000000
 H   -1.319019178437    2.036273592032   -0.902247000000
 C   -1.802830178437    1.639753592032    0.000000000000
 S   -1.802830178437   -0.192972407968    0.000000000000
 H   -0.462247178437   -0.349363407968    0.000000000000
NA    3.709461712724   -0.836030570835    0.000000000000
