7

 H   -2.987237992649    1.960303910369    0.000000000000
 H   -1.447678992649    2.051282910369    0.902247000000
 H   -1.447678992649    2.051282910369   -0.902247000000
 C   -1.931489992649    1.654762910369    0.000000000000
 S   -1.931489992649   -0.177963089631    0.000000000000
 H   -0.590906992649   -0.334354089631    0.000000000000
NA    3.978107507194   -0.867370506104    0.000000000000
