7

 H   -3.083732853308    1.971560899122    0.000000000000
 H   -1.544173853308    2.062539899122    0.902247000000
 H   -1.544173853308    2.062539899122   -0.902247000000
 C   -2.027984853308    1.666019899122    0.000000000000
 S   -2.027984853308   -0.166706100878    0.000000000000
 H   -0.687401853308   -0.323097100878    0.000000000000
NA    4.179591853046   -0.890875457556    0.000000000000
