7

 H   -3.276722574626    1.994074876628    0.000000000000
 H   -1.737163574626    2.085053876628    0.902247000000
 H   -1.737163574626    2.085053876628   -0.902247000000
 C   -2.220974574626    1.688533876628    0.000000000000
 S   -2.220974574626   -0.144192123372    0.000000000000
 H   -0.880391574626   -0.300583123372    0.000000000000
NA    4.582560544751   -0.937885360460    0.000000000000
