7

 H   -3.405382388838    2.009084194965    0.000000000000
 H   -1.865823388838    2.100063194965    0.902247000000
 H   -1.865823388838    2.100063194965   -0.902247000000
 C   -2.349634388838    1.703543194965    0.000000000000
 S   -2.349634388838   -0.129182805035    0.000000000000
 H   -1.009051388838   -0.285573805035    0.000000000000
NA    4.851206339221   -0.969225295729    0.000000000000
