7

 H   -3.759196877922    2.050359820392    0.000000000000
 H   -2.219637877922    2.141338820392    0.902247000000
 H   -2.219637877922    2.141338820392   -0.902247000000
 C   -2.703448877922    1.744818820392    0.000000000000
 S   -2.703448877922   -0.087907179608    0.000000000000
 H   -1.362865877922   -0.244298179608    0.000000000000
NA    5.589982274013   -1.055410117719    0.000000000000
