7

 H   -3.855691738581    2.061616809145    0.000000000000
 H   -2.316132738581    2.152595809145    0.902247000000
 H   -2.316132738581    2.152595809145   -0.902247000000
 C   -2.799943738581    1.756075809145    0.000000000000
 S   -2.799943738581   -0.076650190855    0.000000000000
 H   -1.459360738581   -0.233041190855    0.000000000000
NA    5.791466619865   -1.078915069171    0.000000000000
