7

 H   -3.984351552793    2.076626127483    0.000000000000
 H   -2.444792552793    2.167605127483    0.902247000000
 H   -2.444792552793    2.167605127483   -0.902247000000
 C   -2.928603552793    1.771085127483    0.000000000000
 S   -2.928603552793   -0.061640872517    0.000000000000
 H   -1.588020552793   -0.218031872517    0.000000000000
NA    6.060112414335   -1.110255004440    0.000000000000
