7

 H   -4.080846413452    2.087883116235    0.000000000000
 H   -2.541287413452    2.178862116235    0.902247000000
 H   -2.541287413452    2.178862116235   -0.902247000000
 C   -3.025098413452    1.782342116235    0.000000000000
 S   -3.025098413452   -0.050383883765    0.000000000000
 H   -1.684515413452   -0.206774883765    0.000000000000
NA    6.261596760187   -1.133759955892    0.000000000000
