7

 H   -4.113011367005    2.091635445820    0.000000000000
 H   -2.573452367005    2.182614445820    0.902247000000
 H   -2.573452367005    2.182614445820   -0.902247000000
 C   -3.057263367005    1.786094445820    0.000000000000
 S   -3.057263367005   -0.046631554180    0.000000000000
 H   -1.716680367005   -0.203022554180    0.000000000000
NA    6.328758208805   -1.141594939709    0.000000000000
