7

 H   -4.273836134770    2.110397093741    0.000000000000
 H   -2.734277134770    2.201376093741    0.902247000000
 H   -2.734277134770    2.201376093741   -0.902247000000
 C   -3.218088134770    1.804856093741    0.000000000000
 S   -3.218088134770   -0.027869906259    0.000000000000
 H   -1.877505134770   -0.184260906259    0.000000000000
NA    6.664565451892   -1.180769858795    0.000000000000
