7

 H   -4.370330995429    2.121654082494    0.000000000000
 H   -2.830771995429    2.212633082494    0.902247000000
 H   -2.830771995429    2.212633082494   -0.902247000000
 C   -3.314582995429    1.816113082494    0.000000000000
 S   -3.314582995429   -0.016612917506    0.000000000000
 H   -1.973999995429   -0.173003917506    0.000000000000
NA    6.866049797744   -1.204274810247    0.000000000000
