7

 H   -4.466825856088    2.132911071247    0.000000000000
 H   -2.927266856088    2.223890071247    0.902247000000
 H   -2.927266856088    2.223890071247   -0.902247000000
 C   -3.411077856088    1.827370071247    0.000000000000
 S   -3.411077856088   -0.005355928753    0.000000000000
 H   -2.070494856088   -0.161746928753    0.000000000000
NA    7.067534143597   -1.227779761699    0.000000000000
