7

 H   -4.498990809641    2.136663400831    0.000000000000
 H   -2.959431809641    2.227642400831    0.902247000000
 H   -2.959431809641    2.227642400831   -0.902247000000
 C   -3.443242809641    1.831122400831    0.000000000000
 S   -3.443242809641   -0.001603599169    0.000000000000
 H   -2.102659809641   -0.157994599169    0.000000000000
NA    7.134695592214   -1.235614745517    0.000000000000
