7

 H   -4.563320716747    2.144168060000    0.000000000000
 H   -3.023761716747    2.235147060000    0.902247000000
 H   -3.023761716747    2.235147060000   -0.902247000000
 C   -3.507572716747    1.838627060000    0.000000000000
 S   -3.507572716747    0.005901060000    0.000000000000
 H   -2.166989716747   -0.150489940000    0.000000000000
NA    7.269018489449   -1.251284713151    0.000000000000
