7

 H   -4.595485670300    2.147920389584    0.000000000000
 H   -3.055926670300    2.238899389584    0.902247000000
 H   -3.055926670300    2.238899389584   -0.902247000000
 C   -3.539737670300    1.842379389584    0.000000000000
 S   -3.539737670300    0.009653389584    0.000000000000
 H   -2.199154670300   -0.146737610416    0.000000000000
NA    7.336179938066   -1.259119696968    0.000000000000
