7

 H   -4.691980530959    2.159177378337    0.000000000000
 H   -3.152421530959    2.250156378337    0.902247000000
 H   -3.152421530959    2.250156378337   -0.902247000000
 C   -3.636232530959    1.853636378337    0.000000000000
 S   -3.636232530959    0.020910378337    0.000000000000
 H   -2.295649530959   -0.135480621663    0.000000000000
NA    7.537664283919   -1.282624648420    0.000000000000
