10

 C    0.993936972954    0.620643053976    0.610675756573
 H    1.387423972954    1.633772053976    0.610895756573
 C    1.605969972954   -0.629464946024    0.610711756573
 H    2.671676972954   -0.848191946024    0.610617756573
 N   -0.361151027046    0.351675053976    0.610663756573
 H   -1.106085027046    1.038325053976    0.610917756573
 C   -0.518957027046   -1.012364946024    0.610718756573
 H   -1.496581027046   -1.488380946024    0.610592756573
 N    0.659958972954   -1.638959946024    0.610707756573
RB   -0.360650275330    0.352625213221   -0.489335719084
