10

 C    0.993760064544    0.620307376322    0.999289817743
 H    1.387247064544    1.633436376322    0.999509817743
 C    1.605793064544   -0.629800623678    0.999325817743
 H    2.671500064544   -0.848527623678    0.999231817743
 N   -0.361327935456    0.351339376322    0.999277817743
 H   -1.106261935456    1.037989376322    0.999531817743
 C   -0.519133935456   -1.012700623678    0.999332817743
 H   -1.496757935456   -1.488716623678    0.999206817743
 N    0.659782064544   -1.639295623678    0.999321817743
RB   -0.360508523557    0.352894182360   -0.800721324241
