10

 C    0.993734791914    0.620259422371    1.054806112196
 H    1.387221791914    1.633388422371    1.055026112196
 C    1.605767791914   -0.629848577629    1.054842112196
 H    2.671474791914   -0.848575577629    1.054748112196
 N   -0.361353208086    0.351291422371    1.054794112196
 H   -1.106287208086    1.037941422371    1.055048112196
 C   -0.519159208086   -1.012748577629    1.054849112196
 H   -1.496783208086   -1.488764577629    1.054723112196
 N    0.659756791914   -1.639343577629    1.054838112196
RB   -0.360488273304    0.352932606522   -0.845204982121
