10

 C    0.991687708885    0.616375152378    5.551625962880
 H    1.385174708885    1.629504152378    5.551845962880
 C    1.603720708885   -0.633732847622    5.551661962880
 H    2.669427708885   -0.852459847622    5.551567962880
 N   -0.363400291115    0.347407152378    5.551613962880
 H   -1.108334291115    1.034057152378    5.551867962880
 C   -0.521206291115   -1.016632847622    5.551668962880
 H   -1.498830291115   -1.492648847622    5.551542962880
 N    0.657709708885   -1.643227847622    5.551657962880
RB   -0.358848002785    0.356044963699   -4.448381270363
