10

 C    0.993633701394    0.620067606569    1.276871290007
 H    1.387120701394    1.633196606569    1.277091290007
 C    1.605666701394   -0.630040393431    1.276907290007
 H    2.671373701394   -0.848767393431    1.276813290007
 N   -0.361454298606    0.351099606569    1.276859290007
 H   -1.106388298606    1.037749606569    1.277113290007
 C   -0.519260298606   -1.012940393431    1.276914290007
 H   -1.496884298606   -1.488956393431    1.276788290007
 N    0.659655701394   -1.639535393431    1.276903290007
RB   -0.360407272290    0.353086303173   -1.023139613639
