10

 C    0.993482065614    0.619779882866    1.609969056725
 H    1.386969065614    1.632908882866    1.610189056725
 C    1.605515065614   -0.630328117134    1.610005056725
 H    2.671222065614   -0.849055117134    1.609911056725
 N   -0.361605934386    0.350811882866    1.609957056725
 H   -1.106539934386    1.037461882866    1.610211056725
 C   -0.519411934386   -1.013228117134    1.610012056725
 H   -1.497035934386   -1.489244117134    1.609886056725
 N    0.659504065614   -1.639823117134    1.610001056725
RB   -0.360285770771    0.353316848149   -1.290041560916
