10

 C    0.993456792984    0.619731928916    1.665485351177
 H    1.386943792984    1.632860928916    1.665705351177
 C    1.605489792984   -0.630376071084    1.665521351177
 H    2.671196792984   -0.849103071084    1.665427351177
 N   -0.361631207016    0.350763928916    1.665473351177
 H   -1.106565207016    1.037413928916    1.665727351177
 C   -0.519437207016   -1.013276071084    1.665528351177
 H   -1.497061207016   -1.489292071084    1.665402351177
 N    0.659478792984   -1.639871071084    1.665517351177
RB   -0.360265520517    0.353355272312   -1.334525218795
