10

 C    0.993431520354    0.619683974965    1.721001645630
 H    1.386918520354    1.632812974965    1.721221645630
 C    1.605464520354   -0.630424025035    1.721037645630
 H    2.671171520354   -0.849151025035    1.720943645630
 N   -0.361656479646    0.350715974965    1.720989645630
 H   -1.106590479646    1.037365974965    1.721243645630
 C   -0.519462479646   -1.013324025035    1.721044645630
 H   -1.497086479646   -1.489340025035    1.720918645630
 N    0.659453520354   -1.639919025035    1.721033645630
RB   -0.360245270264    0.353393696475   -1.379008876675
