10

 C    0.993406247724    0.619636021015    1.776517940083
 H    1.386893247724    1.632765021015    1.776737940083
 C    1.605439247724   -0.630471978985    1.776553940083
 H    2.671146247724   -0.849198978985    1.776459940083
 N   -0.361681752276    0.350668021015    1.776505940083
 H   -1.106615752276    1.037318021015    1.776759940083
 C   -0.519487752276   -1.013371978985    1.776560940083
 H   -1.497111752276   -1.489387978985    1.776434940083
 N    0.659428247724   -1.639966978985    1.776549940083
RB   -0.360225020011    0.353432120637   -1.423492534555
