10

 C    0.993380975094    0.619588067064    1.832034234536
 H    1.386867975094    1.632717067064    1.832254234536
 C    1.605413975094   -0.630519932936    1.832070234536
 H    2.671120975094   -0.849246932936    1.831976234536
 N   -0.361707024906    0.350620067064    1.832022234536
 H   -1.106641024906    1.037270067064    1.832276234536
 C   -0.519513024906   -1.013419932936    1.832077234536
 H   -1.497137024906   -1.489435932936    1.831951234536
 N    0.659402975094   -1.640014932936    1.832066234536
RB   -0.360204769757    0.353470544800   -1.467976192434
