10

 C    0.993355702464    0.619540113114    1.887550528989
 H    1.386842702464    1.632669113114    1.887770528989
 C    1.605388702464   -0.630567886886    1.887586528989
 H    2.671095702464   -0.849294886886    1.887492528989
 N   -0.361732297536    0.350572113114    1.887538528989
 H   -1.106666297536    1.037222113114    1.887792528989
 C   -0.519538297536   -1.013467886886    1.887593528989
 H   -1.497162297536   -1.489483886886    1.887467528989
 N    0.659377702464   -1.640062886886    1.887582528989
RB   -0.360184519504    0.353508968963   -1.512459850314
