10

 C    0.993254611944    0.619348297311    2.109615706801
 H    1.386741611944    1.632477297311    2.109835706801
 C    1.605287611944   -0.630759702689    2.109651706801
 H    2.670994611944   -0.849486702689    2.109557706801
 N   -0.361833388056    0.350380297311    2.109603706801
 H   -1.106767388056    1.037030297311    2.109857706801
 C   -0.519639388056   -1.013659702689    2.109658706801
 H   -1.497263388056   -1.489675702689    2.109532706801
 N    0.659276611944   -1.640254702689    2.109647706801
RB   -0.360103518491    0.353662665613   -1.690394481832
