10

 C    0.993204066684    0.619252389410    2.220648295706
 H    1.386691066684    1.632381389410    2.220868295706
 C    1.605237066684   -0.630855610590    2.220684295706
 H    2.670944066684   -0.849582610590    2.220590295706
 N   -0.361883933316    0.350284389410    2.220636295706
 H   -1.106817933316    1.036934389410    2.220890295706
 C   -0.519689933316   -1.013755610590    2.220691295706
 H   -1.497313933316   -1.489771610590    2.220565295706
 N    0.659226066684   -1.640350610590    2.220680295706
RB   -0.360063017984    0.353739513939   -1.779361797591
