10

 C    0.993178794054    0.619204435460    2.276164590159
 H    1.386665794054    1.632333435460    2.276384590159
 C    1.605211794054   -0.630903564540    2.276200590159
 H    2.670918794054   -0.849630564540    2.276106590159
 N   -0.361909205946    0.350236435460    2.276152590159
 H   -1.106843205946    1.036886435460    2.276406590159
 C   -0.519715205946   -1.013803564540    2.276207590159
 H   -1.497339205946   -1.489819564540    2.276081590159
 N    0.659200794054   -1.640398564540    2.276196590159
RB   -0.360042767731    0.353777938101   -1.823845455470
