10

 C    0.993153521424    0.619156481509    2.331680884612
 H    1.386640521424    1.632285481509    2.331900884612
 C    1.605186521424   -0.630951518491    2.331716884612
 H    2.670893521424   -0.849678518491    2.331622884612
 N   -0.361934478576    0.350188481509    2.331668884612
 H   -1.106868478576    1.036838481509    2.331922884612
 C   -0.519740478576   -1.013851518491    2.331723884612
 H   -1.497364478576   -1.489867518491    2.331597884612
 N    0.659175521424   -1.640446518491    2.331712884612
RB   -0.360022517478    0.353816362264   -1.868329113350
