10

 C    0.993128248794    0.619108527559    2.387197179065
 H    1.386615248794    1.632237527559    2.387417179065
 C    1.605161248794   -0.630999472441    2.387233179065
 H    2.670868248794   -0.849726472441    2.387139179065
 N   -0.361959751206    0.350140527559    2.387185179065
 H   -1.106893751206    1.036790527559    2.387439179065
 C   -0.519765751206   -1.013899472441    2.387240179065
 H   -1.497389751206   -1.489915472441    2.387114179065
 N    0.659150248794   -1.640494472441    2.387229179065
RB   -0.360002267224    0.353854786427   -1.912812771230
