10

 C    0.993102976164    0.619060573608    2.442713473518
 H    1.386589976164    1.632189573608    2.442933473518
 C    1.605135976164   -0.631047426392    2.442749473518
 H    2.670842976164   -0.849774426392    2.442655473518
 N   -0.361985023836    0.350092573608    2.442701473518
 H   -1.106919023836    1.036742573608    2.442955473518
 C   -0.519791023836   -1.013947426392    2.442756473518
 H   -1.497415023836   -1.489963426392    2.442630473518
 N    0.659124976164   -1.640542426392    2.442745473518
RB   -0.359982016971    0.353893210589   -1.957296429109
