10

 C    0.993077703534    0.619012619658    2.498229767971
 H    1.386564703534    1.632141619658    2.498449767971
 C    1.605110703534   -0.631095380342    2.498265767971
 H    2.670817703534   -0.849822380342    2.498171767971
 N   -0.362010296466    0.350044619658    2.498217767971
 H   -1.106944296466    1.036694619658    2.498471767971
 C   -0.519816296466   -1.013995380342    2.498272767971
 H   -1.497440296466   -1.490011380342    2.498146767971
 N    0.659099703534   -1.640590380342    2.498261767971
RB   -0.359961766718    0.353931634752   -2.001780086989
