10

 C    0.993052430904    0.618964665707    2.553746062424
 H    1.386539430904    1.632093665707    2.553966062424
 C    1.605085430904   -0.631143334293    2.553782062424
 H    2.670792430904   -0.849870334293    2.553688062424
 N   -0.362035569096    0.349996665707    2.553734062424
 H   -1.106969569096    1.036646665707    2.553988062424
 C   -0.519841569096   -1.014043334293    2.553789062424
 H   -1.497465569096   -1.490059334293    2.553663062424
 N    0.659074430904   -1.640638334293    2.553778062424
RB   -0.359941516464    0.353970058915   -2.046263744868
