10

 C    0.993001885644    0.618868757806    2.664778651330
 H    1.386488885644    1.631997757806    2.664998651330
 C    1.605034885644   -0.631239242194    2.664814651330
 H    2.670741885644   -0.849966242194    2.664720651330
 N   -0.362086114356    0.349900757806    2.664766651330
 H   -1.107020114356    1.036550757806    2.665020651330
 C   -0.519892114356   -1.014139242194    2.664821651330
 H   -1.497516114356   -1.490155242194    2.664695651330
 N    0.659023885644   -1.640734242194    2.664810651330
RB   -0.359901015958    0.354046907240   -2.135231060627
