10

 C    0.992900795124    0.618676942004    2.886843829141
 H    1.386387795124    1.631805942004    2.887063829141
 C    1.604933795124   -0.631431057996    2.886879829141
 H    2.670640795124   -0.850158057996    2.886785829141
 N   -0.362187204876    0.349708942004    2.886831829141
 H   -1.107121204876    1.036358942004    2.887085829141
 C   -0.519993204876   -1.014331057996    2.886886829141
 H   -1.497617204876   -1.490347057996    2.886760829141
 N    0.658922795124   -1.640926057996    2.886875829141
RB   -0.359820014944    0.354200603891   -2.313165692145
