10

 C    0.992799704604    0.618485126202    3.108909006953
 H    1.386286704604    1.631614126202    3.109129006953
 C    1.604832704604   -0.631622873798    3.108945006953
 H    2.670539704604   -0.850349873798    3.108851006953
 N   -0.362288295396    0.349517126202    3.108897006953
 H   -1.107222295396    1.036167126202    3.109151006953
 C   -0.520094295396   -1.014522873798    3.108952006953
 H   -1.497718295396   -1.490538873798    3.108826006953
 N    0.658821704604   -1.641117873798    3.108941006953
RB   -0.359739013931    0.354354300542   -2.491100323664
