10

 C    0.992774431974    0.618437172251    3.164425301406
 H    1.386261431974    1.631566172251    3.164645301406
 C    1.604807431974   -0.631670827749    3.164461301406
 H    2.670514431974   -0.850397827749    3.164367301406
 N   -0.362313568026    0.349469172251    3.164413301406
 H   -1.107247568026    1.036119172251    3.164667301406
 C   -0.520119568026   -1.014570827749    3.164468301406
 H   -1.497743568026   -1.490586827749    3.164342301406
 N    0.658796431974   -1.641165827749    3.164457301406
RB   -0.359718763678    0.354392724704   -2.535583981543
