10

 C    0.992597523565    0.618101494598    3.553039362576
 H    1.386084523565    1.631230494598    3.553259362576
 C    1.604630523565   -0.632006505402    3.553075362576
 H    2.670337523565   -0.850733505402    3.552981362576
 N   -0.362490476435    0.349133494598    3.553027362576
 H   -1.107424476435    1.035783494598    3.553281362576
 C   -0.520296476435   -1.014906505402    3.553082362576
 H   -1.497920476435   -1.490922505402    3.552956362576
 N    0.658619523565   -1.641501505402    3.553071362576
RB   -0.359577011905    0.354661693843   -2.846969586700
