10

 C    0.992471160415    0.617861724845    3.830620834840
 H    1.385958160415    1.630990724845    3.830840834840
 C    1.604504160415   -0.632246275155    3.830656834840
 H    2.670211160415   -0.850973275155    3.830562834840
 N   -0.362616839585    0.348893724845    3.830608834840
 H   -1.107550839585    1.035543724845    3.830862834840
 C   -0.520422839585   -1.015146275155    3.830663834840
 H   -1.498046839585   -1.491162275155    3.830537834840
 N    0.658493160415   -1.641741275155    3.830652834840
RB   -0.359475760638    0.354853814656   -3.069387876098
