10

 C    0.992395342525    0.617717862993    3.997169718199
 H    1.385882342525    1.630846862993    3.997389718199
 C    1.604428342525   -0.632390137007    3.997205718199
 H    2.670135342525   -0.851117137007    3.997111718199
 N   -0.362692657475    0.348749862993    3.997157718199
 H   -1.107626657475    1.035399862993    3.997411718199
 C   -0.520498657475   -1.015290137007    3.997212718199
 H   -1.498122657475   -1.491306137007    3.997086718199
 N    0.658417342525   -1.641885137007    3.997201718199
RB   -0.359415009878    0.354969087144   -3.202838849736
