10

 C    0.992344797265    0.617621955092    4.108202307105
 H    1.385831797265    1.630750955092    4.108422307105
 C    1.604377797265   -0.632486044908    4.108238307105
 H    2.670084797265   -0.851213044908    4.108144307105
 N   -0.362743202735    0.348653955092    4.108190307105
 H   -1.107677202735    1.035303955092    4.108444307105
 C   -0.520549202735   -1.015386044908    4.108245307105
 H   -1.498173202735   -1.491402044908    4.108119307105
 N    0.658366797265   -1.641981044908    4.108234307105
RB   -0.359374509371    0.355045935470   -3.291806165495
