10

 C    0.992193161485    0.617334231389    4.441300073822
 H    1.385680161485    1.630463231389    4.441520073822
 C    1.604226161485   -0.632773768611    4.441336073822
 H    2.669933161485   -0.851500768611    4.441242073822
 N   -0.362894838515    0.348366231389    4.441288073822
 H   -1.107828838515    1.035016231389    4.441542073822
 C   -0.520700838515   -1.015673768611    4.441343073822
 H   -1.498324838515   -1.491689768611    4.441217073822
 N    0.658215161485   -1.642268768611    4.441332073822
RB   -0.359253007852    0.355276480446   -3.558708112773
