10

 C    0.992142616225    0.617238323488    4.552332662728
 H    1.385629616225    1.630367323488    4.552552662728
 C    1.604175616225   -0.632869676512    4.552368662728
 H    2.669882616225   -0.851596676512    4.552274662728
 N   -0.362945383775    0.348270323488    4.552320662728
 H   -1.107879383775    1.034920323488    4.552574662728
 C   -0.520751383775   -1.015769676512    4.552375662728
 H   -1.498375383775   -1.491785676512    4.552249662728
 N    0.658164616225   -1.642364676512    4.552364662728
RB   -0.359212507345    0.355353328771   -3.647675428532
