10

 C    0.992117343595    0.617190369538    4.607848957181
 H    1.385604343595    1.630319369538    4.608068957181
 C    1.604150343595   -0.632917630462    4.607884957181
 H    2.669857343595   -0.851644630462    4.607790957181
 N   -0.362970656405    0.348222369538    4.607836957181
 H   -1.107904656405    1.034872369538    4.608090957181
 C   -0.520776656405   -1.015817630462    4.607891957181
 H   -1.498400656405   -1.491833630462    4.607765957181
 N    0.658139343595   -1.642412630462    4.607880957181
RB   -0.359192257092    0.355391752934   -3.692159086411
