10

 C    0.992041525705    0.617046507686    4.774397840539
 H    1.385528525705    1.630175507686    4.774617840539
 C    1.604074525705   -0.633061492314    4.774433840539
 H    2.669781525705   -0.851788492314    4.774339840539
 N   -0.363046474295    0.348078507686    4.774385840539
 H   -1.107980474295    1.034728507686    4.774639840539
 C   -0.520852474295   -1.015961492314    4.774440840539
 H   -1.498476474295   -1.491977492314    4.774314840539
 N    0.658063525705   -1.642556492314    4.774429840539
RB   -0.359131506332    0.355507025422   -3.825610060050
