10

 C    0.991940435185    0.616854691884    4.996463018351
 H    1.385427435185    1.629983691884    4.996683018351
 C    1.603973435185   -0.633253308116    4.996499018351
 H    2.669680435185   -0.851980308116    4.996405018351
 N   -0.363147564815    0.347886691884    4.996451018351
 H   -1.108081564815    1.034536691884    4.996705018351
 C   -0.520953564815   -1.016153308116    4.996506018351
 H   -1.498577564815   -1.492169308116    4.996380018351
 N    0.657962435185   -1.642748308116    4.996495018351
RB   -0.359050505318    0.355660722073   -4.003544691568
