10

 C    0.991889889925    0.616758783983    5.107495607257
 H    1.385376889925    1.629887783983    5.107715607257
 C    1.603922889925   -0.633349216017    5.107531607257
 H    2.669629889925   -0.852076216017    5.107437607257
 N   -0.363198110075    0.347790783983    5.107483607257
 H   -1.108132110075    1.034440783983    5.107737607257
 C   -0.521004110075   -1.016249216017    5.107538607257
 H   -1.498628110075   -1.492265216017    5.107412607257
 N    0.657911889925   -1.642844216017    5.107527607257
RB   -0.359010004812    0.355737570398   -4.092512007327
