10

 C    0.991763526775    0.616519014230    5.385077079521
 H    1.385250526775    1.629648014230    5.385297079521
 C    1.603796526775   -0.633588985770    5.385113079521
 H    2.669503526775   -0.852315985770    5.385019079521
 N   -0.363324473225    0.347551014230    5.385065079521
 H   -1.108258473225    1.034201014230    5.385319079521
 C   -0.521130473225   -1.016488985770    5.385120079521
 H   -1.498754473225   -1.492504985770    5.384994079521
 N    0.657785526775   -1.643083985770    5.385109079521
RB   -0.358908753545    0.355929691211   -4.314930296725
