16

 N    0.554498192045    1.420544624452    0.030777798434
 C    1.925113604454    1.620019302293    0.027146164058
 H    2.246897900792    2.663764233169    0.048564979751
 C   -0.045217077384    0.167429464899    0.006247807778
 O   -1.262991108916    0.000486758832    0.007243888552
 N    0.880088938227   -0.869348144943   -0.021408729211
 H    0.485515230364   -1.807862454792   -0.041917602609
 C    2.285819316622   -0.783309432625   -0.029856780002
 O    2.974139989050   -1.806926654427   -0.057964718555
 C    2.815588497687    0.585079436109   -0.001250410868
 C    4.307878391293    0.768937761571   -0.006081220694
 H    4.569426020373    1.837365638439    0.016572947453
 H    4.748022704883    0.310617542149   -0.905189472140
 H    4.758883598002    0.270451276265    0.865855616219
 H   -0.087808031284    2.204797662626    0.050673216724
RB   -2.352797917653   -0.148913124094    0.008135298273
