16

 N    0.634254599086    1.431478303503    0.030712561516
 C    2.004870011495    1.630952981344    0.027080927140
 H    2.326654307833    2.674697912220    0.048499742833
 C    0.034539329657    0.178363143950    0.006182570860
 O   -1.183234701875    0.011420437883    0.007178651634
 N    0.959845345268   -0.858414465892   -0.021473966129
 H    0.565271637405   -1.796928775741   -0.041982839527
 C    2.365575723663   -0.772375753574   -0.029922016920
 O    3.053896396091   -1.795992975376   -0.058029955473
 C    2.895344904728    0.596013115160   -0.001315647786
 C    4.387634798334    0.779871440622   -0.006146457612
 H    4.649182427414    1.848299317490    0.016507710535
 H    4.827779111924    0.321551221200   -0.905254709058
 H    4.838640005043    0.281384955316    0.865790379301
 H   -0.008051624243    2.215731341677    0.050607979806
RB   -2.471188203110   -0.165143060120    0.008232135850
