16

 N    0.714011006128    1.442411982554    0.030647324599
 C    2.084626418537    1.641886660395    0.027015690223
 H    2.406410714875    2.685631591271    0.048434505916
 C    0.114295736699    0.189296823001    0.006117333943
 O   -1.103478294833    0.022354116934    0.007113414717
 N    1.039601752310   -0.847480786841   -0.021539203046
 H    0.645028044447   -1.785995096690   -0.042048076444
 C    2.445332130705   -0.761442074523   -0.029987253837
 O    3.133652803133   -1.785059296325   -0.058095192390
 C    2.975101311770    0.606946794211   -0.001380884703
 C    4.467391205376    0.790805119673   -0.006211694529
 H    4.728938834456    1.859232996541    0.016442473618
 H    4.907535518966    0.332484900251   -0.905319945975
 H    4.918396412085    0.292318634367    0.865725142384
 H    0.071704782799    2.226665020728    0.050542742889
RB   -2.589578488566   -0.181372996146    0.008328973428
