16

 N    0.873523820210    1.464279340657    0.030516850765
 C    2.244139232619    1.663754018498    0.026885216389
 H    2.565923528957    2.707498949374    0.048304032082
 C    0.273808550781    0.211164181104    0.005986860109
 O   -0.943965480751    0.044221475037    0.006982940883
 N    1.199114566392   -0.825613428738   -0.021669676880
 H    0.804540858529   -1.764127738587   -0.042178550278
 C    2.604844944787   -0.739574716420   -0.030117727671
 O    3.293165617215   -1.763191938222   -0.058225666224
 C    3.134614125852    0.628814152314   -0.001511358537
 C    4.626904019458    0.812672477776   -0.006342168363
 H    4.888451648538    1.881100354644    0.016311999784
 H    5.067048333048    0.354352258354   -0.905450419809
 H    5.077909226167    0.314185992470    0.865594668550
 H    0.231217596881    2.248532378831    0.050412269055
RB   -2.826359059479   -0.213832868199    0.008522648583
