16

 N    0.953280227251    1.475213019708    0.030451613848
 C    2.323895639660    1.674687697549    0.026819979472
 H    2.645679935998    2.718432628425    0.048238795165
 C    0.353564957822    0.222097860155    0.005921623192
 O   -0.864209073710    0.055155154088    0.006917703966
 N    1.278870973433   -0.814679749687   -0.021734913797
 H    0.884297265570   -1.753194059536   -0.042243787195
 C    2.684601351828   -0.728641037369   -0.030182964588
 O    3.372922024256   -1.752258259171   -0.058290903141
 C    3.214370532893    0.639747831365   -0.001576595454
 C    4.706660426499    0.823606156827   -0.006407405280
 H    4.968208055579    1.892034033695    0.016246762867
 H    5.146804740089    0.365285937405   -0.905515656726
 H    5.157665633208    0.325119671521    0.865529431633
 H    0.310974003922    2.259466057882    0.050347032138
RB   -2.944749344936   -0.230062804225    0.008619486160
