16

 N    0.993158430772    1.480679859233    0.030418995389
 C    2.363773843181    1.680154537074    0.026787361013
 H    2.685558139519    2.723899467950    0.048206176706
 C    0.393443161343    0.227564699680    0.005889004733
 O   -0.824330870189    0.060621993613    0.006885085507
 N    1.318749176954   -0.809212910162   -0.021767532256
 H    0.924175469091   -1.747727220011   -0.042276405654
 C    2.724479555349   -0.723174197844   -0.030215583047
 O    3.412800227777   -1.746791419646   -0.058323521600
 C    3.254248736414    0.645214670890   -0.001609213913
 C    4.746538630020    0.829072996352   -0.006440023739
 H    5.008086259100    1.897500873220    0.016214144408
 H    5.186682943610    0.370752776930   -0.905548275185
 H    5.197543836729    0.330586511046    0.865496813174
 H    0.350852207443    2.264932897407    0.050314413679
RB   -3.003944487664   -0.238177772238    0.008667904949
