16

 N    1.072914837813    1.491613538285    0.030353758472
 C    2.443530250222    1.691088216126    0.026722124096
 H    2.765314546560    2.734833147002    0.048140939789
 C    0.473199568384    0.238498378732    0.005823767816
 O   -0.744574463148    0.071555672665    0.006819848590
 N    1.398505583995   -0.798279231110   -0.021832769173
 H    1.003931876132   -1.736793540959   -0.042341642571
 C    2.804235962390   -0.712240518792   -0.030280819964
 O    3.492556634818   -1.735857740594   -0.058388758517
 C    3.334005143455    0.656148349942   -0.001674450830
 C    4.826295037061    0.840006675404   -0.006505260656
 H    5.087842666141    1.908434552272    0.016148907491
 H    5.266439350651    0.381686455982   -0.905613512102
 H    5.277300243770    0.341520190098    0.865431576257
 H    0.430608614484    2.275866576459    0.050249176762
RB   -3.122334773120   -0.254407708264    0.008764742526
