16

 N    1.112793041334    1.497080377810    0.030321140013
 C    2.483408453743    1.696555055651    0.026689505637
 H    2.805192750081    2.740299986527    0.048108321330
 C    0.513077771905    0.243965218257    0.005791149357
 O   -0.704696259627    0.077022512190    0.006787230131
 N    1.438383787516   -0.792812391585   -0.021865387632
 H    1.043810079653   -1.731326701434   -0.042374261030
 C    2.844114165911   -0.706773679267   -0.030313438423
 O    3.532434838339   -1.730390901069   -0.058421376976
 C    3.373883346976    0.661615189467   -0.001707069289
 C    4.866173240582    0.845473514929   -0.006537879115
 H    5.127720869662    1.913901391797    0.016116289032
 H    5.306317554172    0.387153295507   -0.905646130561
 H    5.317178447291    0.346987029623    0.865398957798
 H    0.470486818005    2.281333415984    0.050216558303
RB   -3.181529915849   -0.262522676277    0.008813161315
