16

 N    1.391940465978    1.535348254489    0.030092810803
 C    2.762555878387    1.734822932330    0.026461176427
 H    3.084340174725    2.778567863206    0.047879992120
 C    0.792225196549    0.282233094936    0.005562820147
 O   -0.425548834983    0.115290388869    0.006558900921
 N    1.717531212160   -0.754544514906   -0.022093716842
 H    1.322957504297   -1.693058824755   -0.042602590240
 C    3.123261590555   -0.668505802588   -0.030541767633
 O    3.811582262983   -1.692123024390   -0.058649706186
 C    3.653030771620    0.699883066146   -0.001935398499
 C    5.145320665226    0.883741391608   -0.006766208325
 H    5.406868294306    1.952169268476    0.015887959822
 H    5.585464978816    0.425421172186   -0.905874459771
 H    5.596325871935    0.385254906302    0.865170628588
 H    0.749634242649    2.319601292663    0.049988229093
RB   -3.595895914946   -0.319327452369    0.009152092836
