16

 N    1.471696873020    1.546281933541    0.030027573886
 C    2.842312285429    1.745756611382    0.026395939510
 H    3.164096581767    2.789501542258    0.047814755203
 C    0.871981603591    0.293166773988    0.005497583230
 O   -0.345792427941    0.126224067921    0.006493664004
 N    1.797287619202   -0.743610835854   -0.022158953759
 H    1.402713911339   -1.682125145703   -0.042667827157
 C    3.203017997597   -0.657572123536   -0.030607004550
 O    3.891338670025   -1.681189345338   -0.058714943103
 C    3.732787178662    0.710816745198   -0.002000635416
 C    5.225077072268    0.894675070660   -0.006831445242
 H    5.486624701348    1.963102947528    0.015822722905
 H    5.665221385858    0.436354851238   -0.905939696688
 H    5.676082278977    0.396188585354    0.865105391671
 H    0.829390649691    2.330534971715    0.049922992176
RB   -3.714286200403   -0.335557388395    0.009248930414
