16

 N    1.511575076540    1.551748773066    0.029994955427
 C    2.882190488949    1.751223450907    0.026363321051
 H    3.203974785287    2.794968381783    0.047782136744
 C    0.911859807111    0.298633613513    0.005464964771
 O   -0.305914224421    0.131690907446    0.006461045545
 N    1.837165822722   -0.738143996329   -0.022191572218
 H    1.442592114859   -1.676658306178   -0.042700445616
 C    3.242896201117   -0.652105284011   -0.030639623009
 O    3.931216873545   -1.675722505813   -0.058747561562
 C    3.772665382182    0.716283584723   -0.002033253875
 C    5.264955275788    0.900141910185   -0.006864063701
 H    5.526502904868    1.968569787053    0.015790104446
 H    5.705099589378    0.441821690763   -0.905972315147
 H    5.715960482497    0.401655424879    0.865072773212
 H    0.869268853211    2.336001811240    0.049890373717
RB   -3.773481343131   -0.343672356408    0.009297349203
