16

 N    1.551453280061    1.557215612592    0.029962336969
 C    2.922068692470    1.756690290433    0.026330702593
 H    3.243852988808    2.800435221309    0.047749518286
 C    0.951738010632    0.304100453039    0.005432346313
 O   -0.266036020900    0.137157746972    0.006428427087
 N    1.877044026243   -0.732677156803   -0.022224190676
 H    1.482470318380   -1.671191466652   -0.042733064074
 C    3.282774404638   -0.646638444485   -0.030672241467
 O    3.971095077066   -1.670255666287   -0.058780180020
 C    3.812543585703    0.721750424249   -0.002065872333
 C    5.304833479309    0.905608749711   -0.006896682159
 H    5.566381108389    1.974036626579    0.015757485988
 H    5.744977792899    0.447288530289   -0.906004933605
 H    5.755838686018    0.407122264405    0.865040154754
 H    0.909147056732    2.341468650766    0.049857755259
RB   -3.832676485859   -0.351787324421    0.009345767991
