16

 N    1.591331483581    1.562682452117    0.029929718510
 C    2.961946895990    1.762157129958    0.026298084134
 H    3.283731192328    2.805902060834    0.047716899827
 C    0.991616214152    0.309567292564    0.005399727854
 O   -0.226157817380    0.142624586497    0.006395808628
 N    1.916922229763   -0.727210317278   -0.022256809135
 H    1.522348521900   -1.665724627127   -0.042765682533
 C    3.322652608158   -0.641171604960   -0.030704859926
 O    4.010973280586   -1.664788826762   -0.058812798479
 C    3.852421789223    0.727217263774   -0.002098490792
 C    5.344711682829    0.911075589236   -0.006929300618
 H    5.606259311909    1.979503466104    0.015724867529
 H    5.784855996419    0.452755369814   -0.906037552064
 H    5.795716889538    0.412589103930    0.865007536295
 H    0.949025260252    2.346935490291    0.049825136800
RB   -3.891871628587   -0.359902292435    0.009394186780
