16

 N    1.631209687102    1.568149291643    0.029897100052
 C    3.001825099511    1.767623969484    0.026265465676
 H    3.323609395849    2.811368900360    0.047684281369
 C    1.031494417673    0.315034132090    0.005367109396
 O   -0.186279613859    0.148091426023    0.006363190170
 N    1.956800433284   -0.721743477752   -0.022289427593
 H    1.562226725421   -1.660257787601   -0.042798300991
 C    3.362530811679   -0.635704765434   -0.030737478384
 O    4.050851484107   -1.659321987236   -0.058845416937
 C    3.892299992744    0.732684103300   -0.002131109250
 C    5.384589886350    0.916542428762   -0.006961919076
 H    5.646137515430    1.984970305630    0.015692249071
 H    5.824734199940    0.458222209340   -0.906070170522
 H    5.835595093059    0.418055943456    0.864974917837
 H    0.988903463773    2.352402329817    0.049792518342
RB   -3.951066771316   -0.368017260448    0.009442605569
