16

 N    2.029991722308    1.622817686899    0.029570915466
 C    3.400607134717    1.822292364740    0.025939281090
 H    3.722391431055    2.866037295616    0.047358096783
 C    1.430276452879    0.369702527346    0.005040924810
 O    0.212502421347    0.202759821279    0.006037005584
 N    2.355582468490   -0.667075082496   -0.022615612179
 H    1.961008760627   -1.605589392345   -0.043124485577
 C    3.761312846885   -0.581036370178   -0.031063662970
 O    4.449633519313   -1.604653591980   -0.059171601523
 C    4.291082027950    0.787352498556   -0.002457293836
 C    5.783371921556    0.971210824018   -0.007288103662
 H    6.044919550636    2.039638700886    0.015366064485
 H    6.223516235146    0.512890604596   -0.906396355108
 H    6.234377128265    0.472724338712    0.864648733251
 H    1.387685498979    2.407070725073    0.049466333756
RB   -4.543018198598   -0.449166940579    0.009926793457
