16

 N    2.069869925829    1.628284526425    0.029538297007
 C    3.440485338238    1.827759204266    0.025906662631
 H    3.762269634576    2.871504135142    0.047325478324
 C    1.470154656400    0.375169366872    0.005008306351
 O    0.252380624868    0.208226660805    0.006004387125
 N    2.395460672011   -0.661608242970   -0.022648230638
 H    2.000886964148   -1.600122552819   -0.043157104036
 C    3.801191050406   -0.575569530652   -0.031096281429
 O    4.489511722834   -1.599186752454   -0.059204219982
 C    4.330960231471    0.792819338082   -0.002489912295
 C    5.823250125077    0.976677663544   -0.007320722121
 H    6.084797754157    2.045105540412    0.015333446026
 H    6.263394438667    0.518357444122   -0.906428973567
 H    6.274255331786    0.478191178238    0.864616114792
 H    1.427563702500    2.412537564599    0.049433715297
RB   -4.602213341326   -0.457281908592    0.009975212245
