16

 N    2.109748129350    1.633751365950    0.029505678548
 C    3.480363541759    1.833226043791    0.025874044172
 H    3.802147838097    2.876970974667    0.047292859865
 C    1.510032859921    0.380636206397    0.004975687892
 O    0.292258828389    0.213693500330    0.005971768666
 N    2.435338875532   -0.656141403445   -0.022680849097
 H    2.040765167669   -1.594655713294   -0.043189722495
 C    3.841069253927   -0.570102691127   -0.031128899888
 O    4.529389926355   -1.593719912929   -0.059236838441
 C    4.370838434992    0.798286177607   -0.002522530754
 C    5.863128328598    0.982144503069   -0.007353340580
 H    6.124675957678    2.050572379937    0.015300827567
 H    6.303272642188    0.523824283647   -0.906461592026
 H    6.314133535307    0.483658017763    0.864583496333
 H    1.467441906021    2.418004404124    0.049401096838
RB   -4.661408484054   -0.465396876605    0.010023631034
