16

 N    2.149626332870    1.639218205476    0.029473060090
 C    3.520241745279    1.838692883317    0.025841425714
 H    3.842026041617    2.882437814193    0.047260241407
 C    1.549911063441    0.386103045923    0.004943069434
 O    0.332137031909    0.219160339856    0.005939150208
 N    2.475217079052   -0.650674563919   -0.022713467555
 H    2.080643371189   -1.589188873768   -0.043222340953
 C    3.880947457447   -0.564635851601   -0.031161518346
 O    4.569268129875   -1.588253073403   -0.059269456899
 C    4.410716638512    0.803753017133   -0.002555149212
 C    5.903006532118    0.987611342595   -0.007385959038
 H    6.164554161198    2.056039219463    0.015268209109
 H    6.343150845708    0.529291123173   -0.906494210484
 H    6.354011738827    0.489124857289    0.864550877875
 H    1.507320109541    2.423471243650    0.049368478380
RB   -4.720603626782   -0.473511844618    0.010072049823
