16

 N    2.468651961035    1.682952921681    0.029212112421
 C    3.839267373444    1.882427599522    0.025580478045
 H    4.161051669782    2.926172530398    0.046999293738
 C    1.868936691606    0.429837762128    0.004682121765
 O    0.651162660074    0.262895056061    0.005678202539
 N    2.794242707217   -0.606939847714   -0.022974415224
 H    2.399668999354   -1.545454157563   -0.043483288622
 C    4.199973085612   -0.520901135396   -0.031422466015
 O    4.888293758040   -1.544518357198   -0.059530404568
 C    4.729742266677    0.847487733338   -0.002816096881
 C    6.222032160283    1.031346058800   -0.007646906707
 H    6.483579789363    2.099773935668    0.015007261440
 H    6.662176473873    0.573025839378   -0.906755158153
 H    6.673037366992    0.532859573494    0.864289930206
 H    1.826345737706    2.467205959855    0.049107530711
RB   -5.194164768608   -0.538431588723    0.010459400133
