16

 N    2.588286571597    1.699353440257    0.029114257045
 C    3.958901984006    1.898828118098    0.025482622669
 H    4.280686280344    2.942573048974    0.046901438362
 C    1.988571302168    0.446238280704    0.004584266389
 O    0.770797270636    0.279295574637    0.005580347163
 N    2.913877317779   -0.590539329138   -0.023072270600
 H    2.519303609916   -1.529053638987   -0.043581143998
 C    4.319607696174   -0.504500616820   -0.031520321391
 O    5.007928368602   -1.528117838622   -0.059628259944
 C    4.849376877239    0.863888251914   -0.002913952257
 C    6.341666770845    1.047746577376   -0.007744762083
 H    6.603214399925    2.116174454244    0.014909406064
 H    6.781811084435    0.589426357954   -0.906853013529
 H    6.792671977554    0.549260092070    0.864192074830
 H    1.945980348268    2.483606478431    0.049009675335
RB   -5.371750196793   -0.562776492762    0.010604656499
