16

 N    2.628164775118    1.704820279783    0.029081638587
 C    3.998780187527    1.904294957624    0.025450004211
 H    4.320564483865    2.948039888500    0.046868819904
 C    2.028449505689    0.451705120230    0.004551647931
 O    0.810675474157    0.284762414163    0.005547728705
 N    2.953755521300   -0.585072489612   -0.023104889058
 H    2.559181813437   -1.523586799461   -0.043613762456
 C    4.359485899695   -0.499033777294   -0.031552939849
 O    5.047806572123   -1.522650999096   -0.059660878402
 C    4.889255080760    0.869355091440   -0.002946570715
 C    6.381544974366    1.053213416902   -0.007777380541
 H    6.643092603446    2.121641293770    0.014876787606
 H    6.821689287956    0.594893197480   -0.906885631987
 H    6.832550181075    0.554726931596    0.864159456372
 H    1.985858551789    2.489073317957    0.048977056877
RB   -5.430945339521   -0.570891460775    0.010653075288
