16

 N    2.668042978639    1.710287119309    0.029049020128
 C    4.038658391048    1.909761797150    0.025417385752
 H    4.360442687386    2.953506728026    0.046836201445
 C    2.068327709210    0.457171959756    0.004519029472
 O    0.850553677678    0.290229253689    0.005515110246
 N    2.993633724821   -0.579605650086   -0.023137507517
 H    2.599060016958   -1.518119959935   -0.043646380915
 C    4.399364103216   -0.493566937768   -0.031585558308
 O    5.087684775644   -1.517184159570   -0.059693496861
 C    4.929133284281    0.874821930966   -0.002979189174
 C    6.421423177887    1.058680256428   -0.007809999000
 H    6.682970806967    2.127108133296    0.014844169147
 H    6.861567491477    0.600360037006   -0.906918250446
 H    6.872428384596    0.560193771122    0.864126837913
 H    2.025736755310    2.494540157483    0.048944438418
RB   -5.490140482249   -0.579006428788    0.010701494077
