16

 N    2.907312199762    1.743088156462    0.028853309376
 C    4.277927612171    1.942562834303    0.025221675000
 H    4.599711908509    2.986307765179    0.046640490693
 C    2.307596930333    0.489972996909    0.004323318720
 O    1.089822898801    0.323030290842    0.005319399494
 N    3.232902945944   -0.546804612933   -0.023333218269
 H    2.838329238081   -1.485318922782   -0.043842091667
 C    4.638633324339   -0.460765900615   -0.031781269060
 O    5.326953996767   -1.484383122417   -0.059889207613
 C    5.168402505404    0.907622968119   -0.003174899926
 C    6.660692399010    1.091481293581   -0.008005709752
 H    6.922240028090    2.159909170449    0.014648458395
 H    7.100836712600    0.633161074159   -0.907113961198
 H    7.111697605719    0.592994808275    0.863931127161
 H    2.265005976433    2.527341194636    0.048748727666
RB   -5.845311338619   -0.627696236867    0.010992006809
