16

 N    2.947190403283    1.748554995988    0.028820690918
 C    4.317805815692    1.948029673829    0.025189056542
 H    4.639590112030    2.991774604705    0.046607872235
 C    2.347475133854    0.495439836435    0.004290700262
 O    1.129701102322    0.328497130368    0.005286781036
 N    3.272781149465   -0.541337773407   -0.023365836727
 H    2.878207441602   -1.479852083256   -0.043874710125
 C    4.678511527860   -0.455299061089   -0.031813887518
 O    5.366832200288   -1.478916282891   -0.059921826071
 C    5.208280708925    0.913089807645   -0.003207518384
 C    6.700570602531    1.096948133107   -0.008038328210
 H    6.962118231611    2.165376009975    0.014615839937
 H    7.140714916121    0.638627913685   -0.907146579656
 H    7.151575809240    0.598461647801    0.863898508703
 H    2.304884179954    2.532808034162    0.048716109208
RB   -5.904506481347   -0.635811204880    0.011040425598
