16

 N    3.026946810324    1.759488675039    0.028755454001
 C    4.397562222733    1.958963352880    0.025123819625
 H    4.719346519071    3.002708283756    0.046542635318
 C    2.427231540895    0.506373515486    0.004225463345
 O    1.209457509363    0.339430809419    0.005221544119
 N    3.352537556506   -0.530404094356   -0.023431073644
 H    2.957963848643   -1.468918404205   -0.043939947042
 C    4.758267934901   -0.444365382038   -0.031879124435
 O    5.446588607329   -1.467982603840   -0.059987062988
 C    5.288037115966    0.924023486696   -0.003272755301
 C    6.780327009572    1.107881812158   -0.008103565127
 H    7.041874638652    2.176309689026    0.014550603020
 H    7.220471323162    0.649561592736   -0.907211816573
 H    7.231332216281    0.609395326852    0.863833271786
 H    2.384640586995    2.543741713213    0.048650872291
RB   -6.022896766803   -0.652041140906    0.011137263175
