16

 N    3.066825013845    1.764955514565    0.028722835542
 C    4.437440426254    1.964430192406    0.025091201166
 H    4.759224722592    3.008175123282    0.046510016859
 C    2.467109744416    0.511840355012    0.004192844886
 O    1.249335712884    0.344897648945    0.005188925660
 N    3.392415760027   -0.524937254830   -0.023463692103
 H    2.997842052164   -1.463451564679   -0.043972565501
 C    4.798146138422   -0.438898542512   -0.031911742894
 O    5.486466810850   -1.462515764314   -0.060019681447
 C    5.327915319487    0.929490326222   -0.003305373760
 C    6.820205213093    1.113348651684   -0.008136183586
 H    7.081752842173    2.181776528552    0.014517984561
 H    7.260349526683    0.655028432262   -0.907244435032
 H    7.271210419802    0.614862166378    0.863800653327
 H    2.424518790516    2.549208552739    0.048618253832
RB   -6.082091909532   -0.660156108919    0.011185681964
