16

 N    3.146581420886    1.775889193616    0.028657598625
 C    4.517196833295    1.975363871457    0.025025964249
 H    4.838981129633    3.019108802333    0.046444779942
 C    2.546866151457    0.522774034063    0.004127607969
 O    1.329092119925    0.355831327996    0.005123688743
 N    3.472172167068   -0.514003575779   -0.023528929020
 H    3.077598459205   -1.452517885628   -0.044037802418
 C    4.877902545463   -0.427964863461   -0.031976979811
 O    5.566223217891   -1.451582085263   -0.060084918364
 C    5.407671726528    0.940424005273   -0.003370610677
 C    6.899961620134    1.124282330735   -0.008201420503
 H    7.161509249214    2.192710207603    0.014452747644
 H    7.340105933724    0.665962111313   -0.907309671949
 H    7.350966826843    0.625795845429    0.863735416410
 H    2.504275197557    2.560142231790    0.048553016915
RB   -6.200482194988   -0.676386044946    0.011282519542
