16

 N    3.226337827927    1.786822872667    0.028592361708
 C    4.596953240336    1.986297550508    0.024960727332
 H    4.918737536674    3.030042481384    0.046379543025
 C    2.626622558498    0.533707713114    0.004062371052
 O    1.408848526966    0.366765007047    0.005058451826
 N    3.551928574109   -0.503069896728   -0.023594165937
 H    3.157354866246   -1.441584206577   -0.044103039335
 C    4.957658952504   -0.417031184410   -0.032042216728
 O    5.645979624932   -1.440648406212   -0.060150155281
 C    5.487428133569    0.951357684324   -0.003435847594
 C    6.979718027175    1.135216009786   -0.008266657420
 H    7.241265656255    2.203643886654    0.014387510727
 H    7.419862340765    0.676895790364   -0.907374908866
 H    7.430723233884    0.636729524480    0.863670179493
 H    2.584031604598    2.571075910841    0.048487779998
RB   -6.318872480444   -0.692615980972    0.011379357119
