16

 N    3.306094234969    1.797756551718    0.028527124790
 C    4.676709647378    1.997231229559    0.024895490414
 H    4.998493943716    3.040976160435    0.046314306107
 C    2.706378965540    0.544641392165    0.003997134134
 O    1.488604934008    0.377698686098    0.004993214908
 N    3.631684981151   -0.492136217677   -0.023659402855
 H    3.237111273288   -1.430650527526   -0.044168276253
 C    5.037415359546   -0.406097505359   -0.032107453646
 O    5.725736031974   -1.429714727161   -0.060215392199
 C    5.567184540611    0.962291363375   -0.003501084512
 C    7.059474434217    1.146149688837   -0.008331894338
 H    7.321022063297    2.214577565705    0.014322273809
 H    7.499618747807    0.687829469415   -0.907440145784
 H    7.510479640926    0.647663203531    0.863604942575
 H    2.663788011640    2.582009589892    0.048422543080
RB   -6.437262765901   -0.708845916998    0.011476194697
