16

 N    3.545363456093    1.830557588872    0.028331414039
 C    4.915978868502    2.030032266713    0.024699779663
 H    5.237763164840    3.073777197589    0.046118595356
 C    2.945648186664    0.577442429319    0.003801423383
 O    1.727874155132    0.410499723252    0.004797504157
 N    3.870954202275   -0.459335180523   -0.023855113606
 H    3.476380494412   -1.397849490372   -0.044363987004
 C    5.276684580670   -0.373296468205   -0.032303164397
 O    5.965005253098   -1.396913690007   -0.060411102950
 C    5.806453761735    0.995092400529   -0.003696795263
 C    7.298743655341    1.178950725991   -0.008527605089
 H    7.560291284421    2.247378602859    0.014126563058
 H    7.738887968931    0.720630506569   -0.907635856535
 H    7.749748862050    0.680464240685    0.863409231824
 H    2.903057232764    2.614810627046    0.048226832329
RB   -6.792433622270   -0.757535725077    0.011766707429
