16

 N    3.585241659613    1.836024428397    0.028298795580
 C    4.955857072022    2.035499106238    0.024667161204
 H    5.277641368360    3.079244037114    0.046085976897
 C    2.985526390184    0.582909268844    0.003768804924
 O    1.767752358652    0.415966562777    0.004764885698
 N    3.910832405795   -0.453868340998   -0.023887732065
 H    3.516258697932   -1.392382650847   -0.044396605463
 C    5.316562784190   -0.367829628680   -0.032335782856
 O    6.004883456618   -1.391446850482   -0.060443721409
 C    5.846331965255    1.000559240054   -0.003729413722
 C    7.338621858861    1.184417565516   -0.008560223548
 H    7.600169487941    2.252845442384    0.014093944599
 H    7.778766172451    0.726097346094   -0.907668474994
 H    7.789627065570    0.685931080210    0.863376613365
 H    2.942935436284    2.620277466571    0.048194213870
RB   -6.851628764998   -0.765650693090    0.011815126218
