16

 N    3.744754473696    1.857891786500    0.028168321746
 C    5.115369886105    2.057366464341    0.024536687370
 H    5.437154182443    3.101111395217    0.045955503063
 C    3.145039204267    0.604776626947    0.003638331090
 O    1.927265172735    0.437833920880    0.004634411864
 N    4.070345219878   -0.432000982895   -0.024018205899
 H    3.675771512015   -1.370515292744   -0.044527079297
 C    5.476075598273   -0.345962270577   -0.032466256690
 O    6.164396270701   -1.369579492379   -0.060574195243
 C    6.005844779338    1.022426598157   -0.003859887556
 C    7.498134672944    1.206284923619   -0.008690697382
 H    7.759682302024    2.274712800487    0.013963470765
 H    7.938278986534    0.747964704197   -0.907798948828
 H    7.949139879653    0.707798438313    0.863246139531
 H    3.102448250367    2.642144824674    0.048063740036
RB   -7.088409335911   -0.798110565142    0.012008801373
