16

 N    3.824510880737    1.868825465551    0.028103084829
 C    5.195126293146    2.068300143392    0.024471450453
 H    5.516910589484    3.112045074268    0.045890266146
 C    3.224795611308    0.615710305998    0.003573094173
 O    2.007021579776    0.448767599931    0.004569174947
 N    4.150101626919   -0.421067303844   -0.024083442816
 H    3.755527919056   -1.359581613693   -0.044592316214
 C    5.555832005314   -0.335028591526   -0.032531493607
 O    6.244152677742   -1.358645813328   -0.060639432160
 C    6.085601186379    1.033360277208   -0.003925124473
 C    7.577891079985    1.217218602670   -0.008755934299
 H    7.839438709065    2.285646479538    0.013898233848
 H    8.018035393575    0.758898383248   -0.907864185745
 H    8.028896286694    0.718732117364    0.863180902614
 H    3.182204657408    2.653078503725    0.047998503119
RB   -7.206799621368   -0.814340501168    0.012105638951
