16

 N    3.864389084258    1.874292305076    0.028070466370
 C    5.235004496667    2.073766982917    0.024438831994
 H    5.556788793005    3.117511913793    0.045857647687
 C    3.264673814829    0.621177145523    0.003540475714
 O    2.046899783297    0.454234439456    0.004536556488
 N    4.189979830440   -0.415600464319   -0.024116061275
 H    3.795406122577   -1.354114774168   -0.044624934673
 C    5.595710208835   -0.329561752001   -0.032564112066
 O    6.284030881263   -1.353178973803   -0.060672050619
 C    6.125479389900    1.038827116733   -0.003957742932
 C    7.617769283506    1.222685442195   -0.008788552758
 H    7.879316912586    2.291113319063    0.013865615389
 H    8.057913597096    0.764365222773   -0.907896804204
 H    8.068774490215    0.724198956889    0.863148284155
 H    3.222082860929    2.658545343250    0.047965884660
RB   -7.265994764096   -0.822455469182    0.012154057739
