16

 N    3.904267287778    1.879759144602    0.028037847911
 C    5.274882700187    2.079233822443    0.024406213535
 H    5.596666996525    3.122978753319    0.045825029228
 C    3.304552018349    0.626643985049    0.003507857255
 O    2.086777986817    0.459701278982    0.004503938029
 N    4.229858033960   -0.410133624793   -0.024148679734
 H    3.835284326097   -1.348647934642   -0.044657553132
 C    5.635588412355   -0.324094912475   -0.032596730525
 O    6.323909084783   -1.347712134277   -0.060704669078
 C    6.165357593420    1.044293956259   -0.003990361391
 C    7.657647487026    1.228152281721   -0.008821171217
 H    7.919195116106    2.296580158589    0.013832996930
 H    8.097791800616    0.769832062299   -0.907929422663
 H    8.108652693735    0.729665796415    0.863115665696
 H    3.261961064449    2.664012182776    0.047933266201
RB   -7.325189906824   -0.830570437195    0.012202476528
