16

 N    4.063780101861    1.901626502704    0.027907374077
 C    5.434395514270    2.101101180545    0.024275739701
 H    5.756179810608    3.144846111421    0.045694555394
 C    3.464064832432    0.648511343151    0.003377383421
 O    2.246290800900    0.481568637084    0.004373464195
 N    4.389370848043   -0.388266266691   -0.024279153568
 H    3.994797140180   -1.326780576540   -0.044788026966
 C    5.795101226438   -0.302227554373   -0.032727204359
 O    6.483421898866   -1.325844776175   -0.060835142912
 C    6.324870407503    1.066161314361   -0.004120835225
 C    7.817160301109    1.250019639823   -0.008951645051
 H    8.078707930189    2.318447516691    0.013702523096
 H    8.257304614699    0.791699420401   -0.908059896497
 H    8.268165507818    0.751533154517    0.862985191862
 H    3.421473878532    2.685879540878    0.047802792367
RB   -7.561970477737   -0.863030309247    0.012396151683
