16

 N   -2.987887153226    0.696186024234   -0.515406356445
 C   -1.755761420959    0.065895744226   -0.514451396137
 N   -1.485620484833   -1.254989730742   -0.517915585084
 C   -0.157491316370   -1.473183623492   -0.502348156421
 H    0.156316966600   -2.519862355982   -0.498968585730
 N    0.854858126671   -0.565202666351   -0.488376886146
 C    0.542641382764    0.745618416898   -0.493023290046
 N    1.550268337566    1.670117054203   -0.534845126977
 H    2.481719874953    1.339586945451   -0.312387192844
 H    1.317530831539    2.630087809242   -0.310034881537
 C   -0.822859458110    1.122312270765   -0.501794377761
 N   -1.446388769301    2.361277971395   -0.491916168743
 C   -2.746314256458    2.053198583034   -0.500371021901
 H   -3.556367785245    2.779779384136   -0.496322884038
 H   -3.891676830396    0.235928900400   -0.523009412378
CS    0.842815764787   -0.567162125973    0.511548682104
