16

 N   -2.986692575032    0.696380398706   -0.614596971305
 C   -1.754566842765    0.066090118698   -0.613642010997
 N   -1.484425906639   -1.254795356270   -0.617106199944
 C   -0.156296738176   -1.472989249020   -0.601538771281
 H    0.157511544794   -2.519667981510   -0.598159200590
 N    0.856052704865   -0.565008291879   -0.587567501006
 C    0.543835960958    0.745812791370   -0.592213904906
 N    1.551462915760    1.670311428675   -0.634035741837
 H    2.482914453147    1.339781319923   -0.411577807704
 H    1.318725409733    2.630282183714   -0.409225496397
 C   -0.821664879916    1.122506645237   -0.600984992621
 N   -1.445194191107    2.361472345867   -0.591106783603
 C   -2.745119678264    2.053392957506   -0.599561636761
 H   -3.555173207051    2.779973758608   -0.595513498898
 H   -3.890482252202    0.236123274872   -0.622200027238
CS    0.841601870605   -0.567359643425    0.612343180893
