16

 N   -2.985497996838    0.696574773179   -0.713787586165
 C   -1.753372264571    0.066284493171   -0.712832625857
 N   -1.483231328445   -1.254600981797   -0.716296814804
 C   -0.155102159982   -1.472794874547   -0.700729386141
 H    0.158706122988   -2.519473607037   -0.697349815450
 N    0.857247283059   -0.564813917406   -0.686758115866
 C    0.545030539152    0.746007165843   -0.691404519766
 N    1.552657493954    1.670505803148   -0.733226356697
 H    2.484109031341    1.339975694396   -0.510768422564
 H    1.319919987927    2.630476558187   -0.508416111257
 C   -0.820470301722    1.122701019710   -0.700175607481
 N   -1.443999612913    2.361666720340   -0.690297398463
 C   -2.743925100070    2.053587331979   -0.698752251621
 H   -3.553978628857    2.780168133081   -0.694704113758
 H   -3.889287674008    0.236317649345   -0.721390642098
CS    0.840387976422   -0.567557160877    0.713137679683
