16

 N   -2.984303418644    0.696769147651   -0.812978201025
 C   -1.752177686377    0.066478867643   -0.812023240717
 N   -1.482036750251   -1.254406607325   -0.815487429664
 C   -0.153907581788   -1.472600500075   -0.799920001001
 H    0.159900701182   -2.519279232565   -0.796540430310
 N    0.858441861253   -0.564619542934   -0.785948730726
 C    0.546225117346    0.746201540315   -0.790595134626
 N    1.553852072148    1.670700177620   -0.832416971557
 H    2.485303609535    1.340170068868   -0.609959037424
 H    1.321114566121    2.630670932659   -0.607606726117
 C   -0.819275723528    1.122895394182   -0.799366222341
 N   -1.442805034719    2.361861094812   -0.789488013323
 C   -2.742730521876    2.053781706451   -0.797942866481
 H   -3.552784050663    2.780362507553   -0.793894728618
 H   -3.888093095814    0.236512023817   -0.820581256958
CS    0.839174082240   -0.567754678329    0.813932178473
