16

 N   -2.982511551353    0.697060709360   -0.961764123315
 C   -1.750385819086    0.066770429352   -0.960809163007
 N   -1.480244882960   -1.254115045616   -0.964273351954
 C   -0.152115714497   -1.472308938366   -0.948705923291
 H    0.161692568473   -2.518987670856   -0.945326352600
 N    0.860233728544   -0.564327981225   -0.934734653016
 C    0.548016984637    0.746493102024   -0.939381056916
 N    1.555643939439    1.670991739329   -0.981202893847
 H    2.487095476826    1.340461630577   -0.758744959714
 H    1.322906433412    2.630962494368   -0.756392648407
 C   -0.817483856237    1.123186955891   -0.948152144631
 N   -1.441013167428    2.362152656521   -0.938273935613
 C   -2.740938654585    2.054073268160   -0.946728788771
 H   -3.550992183372    2.780654069262   -0.942680650908
 H   -3.886301228523    0.236803585526   -0.969367179248
CS    0.837353240966   -0.568050954508    0.965123926658
