16

 N   -2.981914262256    0.697157896596   -1.011359430745
 C   -1.749788529989    0.066867616588   -1.010404470437
 N   -1.479647593863   -1.254017858380   -1.013868659384
 C   -0.151518425400   -1.472211751130   -0.998301230721
 H    0.162289857570   -2.518890483620   -0.994921660030
 N    0.860831017641   -0.564230793989   -0.984329960446
 C    0.548614273734    0.746590289260   -0.988976364346
 N    1.556241228536    1.671088926565   -1.030798201277
 H    2.487692765923    1.340558817813   -0.808340267144
 H    1.323503722509    2.631059681604   -0.805987955837
 C   -0.816886567140    1.123284143127   -0.997747452061
 N   -1.440415878331    2.362249843757   -0.987869243043
 C   -2.740341365488    2.054170455396   -0.996324096201
 H   -3.550394894275    2.780751256498   -0.992275958338
 H   -3.885703939426    0.236900772762   -1.018962486678
CS    0.836746293874   -0.568149713234    1.015521176053
