16

 N   -2.981316973158    0.697255083832   -1.060954738175
 C   -1.749191240891    0.066964803824   -1.059999777867
 N   -1.479050304765   -1.253920671144   -1.063463966814
 C   -0.150921136302   -1.472114563894   -1.047896538151
 H    0.162887146668   -2.518793296384   -1.044516967460
 N    0.861428306739   -0.564133606753   -1.033925267876
 C    0.549211562832    0.746687476496   -1.038571671776
 N    1.556838517634    1.671186113801   -1.080393508707
 H    2.488290055021    1.340656005049   -0.857935574574
 H    1.324101011607    2.631156868840   -0.855583263267
 C   -0.816289278042    1.123381330363   -1.047342759491
 N   -1.439818589233    2.362347030993   -1.037464550473
 C   -2.739744076390    2.054267642632   -1.045919403631
 H   -3.549797605177    2.780848443734   -1.041871265768
 H   -3.885106650328    0.236997959998   -1.068557794108
CS    0.836139346783   -0.568248471960    1.065918425447
