16

 N   -2.980122394964    0.697449458304   -1.160145353035
 C   -1.747996662697    0.067159178296   -1.159190392727
 N   -1.477855726571   -1.253726296672   -1.162654581674
 C   -0.149726558108   -1.471920189422   -1.147087153011
 H    0.164081724862   -2.518598921912   -1.143707582320
 N    0.862622884933   -0.563939232281   -1.133115882736
 C    0.550406141026    0.746881850968   -1.137762286636
 N    1.558033095828    1.671380488273   -1.179584123567
 H    2.489484633215    1.340850379521   -0.957126189434
 H    1.325295589801    2.631351243312   -0.954773878127
 C   -0.815094699848    1.123575704835   -1.146533374351
 N   -1.438624011039    2.362541405465   -1.136655165333
 C   -2.738549498196    2.054462017104   -1.145110018491
 H   -3.548603026983    2.781042818206   -1.141061880628
 H   -3.883912072134    0.237192334470   -1.167748408968
CS    0.834925452601   -0.568445989412    1.166712924237
