16

 N   -2.979525105867    0.697546645540   -1.209740660465
 C   -1.747399373600    0.067256365532   -1.208785700157
 N   -1.477258437474   -1.253629109436   -1.212249889104
 C   -0.149129269011   -1.471823002186   -1.196682460441
 H    0.164679013959   -2.518501734676   -1.193302889750
 N    0.863220174030   -0.563842045045   -1.182711190166
 C    0.551003430123    0.746979038204   -1.187357594066
 N    1.558630384925    1.671477675509   -1.229179430997
 H    2.490081922312    1.340947566757   -1.006721496864
 H    1.325892878898    2.631448430548   -1.004369185557
 C   -0.814497410751    1.123672892071   -1.196128681781
 N   -1.438026721942    2.362638592701   -1.186250472763
 C   -2.737952209099    2.054559204340   -1.194705325921
 H   -3.548005737886    2.781140005442   -1.190657188058
 H   -3.883314783037    0.237289521706   -1.217343716398
CS    0.834318505509   -0.568544748138    1.217110173632
