16

 N   -2.978927816770    0.697643832777   -1.259335967895
 C   -1.746802084503    0.067353552769   -1.258381007587
 N   -1.476661148377   -1.253531922199   -1.261845196534
 C   -0.148531979914   -1.471725814949   -1.246277767871
 H    0.165276303056   -2.518404547439   -1.242898197180
 N    0.863817463127   -0.563744857808   -1.232306497596
 C    0.551600719220    0.747076225441   -1.236952901496
 N    1.559227674022    1.671574862746   -1.278774738427
 H    2.490679211409    1.341044753994   -1.056316804294
 H    1.326490167995    2.631545617785   -1.053964492987
 C   -0.813900121654    1.123770079308   -1.245723989211
 N   -1.437429432845    2.362735779938   -1.235845780193
 C   -2.737354920002    2.054656391577   -1.244300633351
 H   -3.547408448789    2.781237192679   -1.240252495488
 H   -3.882717493940    0.237386708943   -1.266939023828
CS    0.833711558418   -0.568643506864    1.267507423027
