16

 N   -2.978330527673    0.697741020013   -1.308931275325
 C   -1.746204795406    0.067450740005   -1.307976315017
 N   -1.476063859280   -1.253434734963   -1.311440503964
 C   -0.147934690817   -1.471628627713   -1.295873075301
 H    0.165873592153   -2.518307360203   -1.292493504610
 N    0.864414752224   -0.563647670572   -1.281901805026
 C    0.552198008317    0.747173412677   -1.286548208926
 N    1.559824963119    1.671672049982   -1.328370045857
 H    2.491276500506    1.341141941230   -1.105912111724
 H    1.327087457092    2.631642805021   -1.103559800417
 C   -0.813302832557    1.123867266544   -1.295319296641
 N   -1.436832143748    2.362832967174   -1.285441087623
 C   -2.736757630905    2.054753578813   -1.293895940781
 H   -3.546811159692    2.781334379915   -1.289847802918
 H   -3.882120204843    0.237483896179   -1.316534331258
CS    0.833104611327   -0.568742265590    1.317904672422
