16

 N   -2.977135949479    0.697935394485   -1.408121890185
 C   -1.745010217212    0.067645114477   -1.407166929877
 N   -1.474869281086   -1.253240360491   -1.410631118824
 C   -0.146740112623   -1.471434253241   -1.395063690161
 H    0.167068170347   -2.518112985731   -1.391684119470
 N    0.865609330418   -0.563453296100   -1.381092419886
 C    0.553392586511    0.747367787149   -1.385738823786
 N    1.561019541313    1.671866424454   -1.427560660717
 H    2.492471078700    1.341336315702   -1.205102726584
 H    1.328282035286    2.631837179493   -1.202750415277
 C   -0.812108254363    1.124061641016   -1.394509911501
 N   -1.435637565554    2.363027341646   -1.384631702483
 C   -2.735563052711    2.054947953285   -1.393086555641
 H   -3.545616581498    2.781528754387   -1.389038417778
 H   -3.880925626649    0.237678270651   -1.415724946118
CS    0.831890717144   -0.568939783042    1.418699171212
