16

 N   -2.975941371285    0.698129768957   -1.507312505045
 C   -1.743815639018    0.067839488949   -1.506357544737
 N   -1.473674702892   -1.253045986019   -1.509821733684
 C   -0.145545534429   -1.471239878769   -1.494254305021
 H    0.168262748541   -2.517918611259   -1.490874734330
 N    0.866803908612   -0.563258921628   -1.480283034746
 C    0.554587164705    0.747562161621   -1.484929438646
 N    1.562214119507    1.672060798926   -1.526751275577
 H    2.493665656894    1.341530690174   -1.304293341444
 H    1.329476613480    2.632031553965   -1.301941030137
 C   -0.810913676169    1.124256015488   -1.493700526361
 N   -1.434442987360    2.363221716118   -1.483822317343
 C   -2.734368474517    2.055142327757   -1.492277170501
 H   -3.544422003304    2.781723128859   -1.488229032638
 H   -3.879731048455    0.237872645123   -1.514915560978
CS    0.830676822962   -0.569137300494    1.519493670002
