16

 N   -2.975344082188    0.698226956194   -1.556907812475
 C   -1.743218349921    0.067936676186   -1.555952852167
 N   -1.473077413795   -1.252948798782   -1.559417041114
 C   -0.144948245332   -1.471142691532   -1.543849612451
 H    0.168860037638   -2.517821424022   -1.540470041760
 N    0.867401197709   -0.563161734391   -1.529878342176
 C    0.555184453802    0.747659348858   -1.534524746076
 N    1.562811408604    1.672157986163   -1.576346583007
 H    2.494262945991    1.341627877411   -1.353888648874
 H    1.330073902577    2.632128741202   -1.351536337567
 C   -0.810316387072    1.124353202725   -1.543295833791
 N   -1.433845698263    2.363318903355   -1.533417624773
 C   -2.733771185420    2.055239514994   -1.541872477931
 H   -3.543824714207    2.781820316096   -1.537824340068
 H   -3.879133759358    0.237969832360   -1.564510868408
CS    0.830069875870   -0.569236059220    1.569890919396
