16

 N   -2.974149503994    0.698421330666   -1.656098427335
 C   -1.742023771727    0.068131050658   -1.655143467027
 N   -1.471882835601   -1.252754424310   -1.658607655974
 C   -0.143753667138   -1.470948317060   -1.643040227311
 H    0.170054615832   -2.517627049550   -1.639660656620
 N    0.868595775903   -0.562967359919   -1.629068957036
 C    0.556379031996    0.747853723330   -1.633715360936
 N    1.564005986798    1.672352360635   -1.675537197867
 H    2.495457524185    1.341822251883   -1.453079263734
 H    1.331268480771    2.632323115674   -1.450726952427
 C   -0.809121808878    1.124547577197   -1.642486448651
 N   -1.432651120069    2.363513277827   -1.632608239633
 C   -2.732576607226    2.055433889466   -1.641063092791
 H   -3.542630136013    2.782014690568   -1.637014954928
 H   -3.877939181164    0.238164206832   -1.663701483268
CS    0.828855981688   -0.569433576672    1.670685418186
