16

 N   -2.972357636702    0.698712892375   -1.804884349625
 C   -1.740231904435    0.068422612367   -1.803929389317
 N   -1.470090968309   -1.252462862601   -1.807393578264
 C   -0.141961799846   -1.470656755351   -1.791826149601
 H    0.171846483124   -2.517335487841   -1.788446578910
 N    0.870387643195   -0.562675798210   -1.777854879326
 C    0.558170899288    0.748145285039   -1.782501283226
 N    1.565797854090    1.672643922344   -1.824323120157
 H    2.497249391477    1.342113813592   -1.601865186024
 H    1.333060348063    2.632614677383   -1.599512874717
 C   -0.807329941586    1.124839138906   -1.791272370941
 N   -1.430859252777    2.363804839536   -1.781394161923
 C   -2.730784739934    2.055725451175   -1.789849015081
 H   -3.540838268721    2.782306252277   -1.785800877218
 H   -3.876147313872    0.238455768541   -1.812487405558
CS    0.827035140414   -0.569729852850    1.821877166371
