16

 N   -2.971760347605    0.698810079611   -1.854479657055
 C   -1.739634615338    0.068519799603   -1.853524696747
 N   -1.469493679212   -1.252365675365   -1.856988885694
 C   -0.141364510749   -1.470559568115   -1.841421457031
 H    0.172443772221   -2.517238300605   -1.838041886340
 N    0.870984932292   -0.562578610974   -1.827450186756
 C    0.558768188385    0.748242472275   -1.832096590656
 N    1.566395143187    1.672741109580   -1.873918427587
 H    2.497846680574    1.342211000828   -1.651460493454
 H    1.333657637160    2.632711864619   -1.649108182147
 C   -0.806732652489    1.124936326142   -1.840867678371
 N   -1.430261963680    2.363902026772   -1.830989469353
 C   -2.730187450837    2.055822638411   -1.839444322511
 H   -3.540240979624    2.782403439513   -1.835396184648
 H   -3.875550024775    0.238552955777   -1.862082712988
CS    0.826428193323   -0.569828611576    1.872274415766
