16

 N   -2.970565769411    0.699004454083   -1.953670271915
 C   -1.738440037144    0.068714174075   -1.952715311607
 N   -1.468299101018   -1.252171300893   -1.956179500554
 C   -0.140169932555   -1.470365193643   -1.940612071891
 H    0.173638350415   -2.517043926133   -1.937232501200
 N    0.872179510486   -0.562384236502   -1.926640801616
 C    0.559962766579    0.748436846747   -1.931287205516
 N    1.567589721381    1.672935484052   -1.973109042447
 H    2.499041258768    1.342405375300   -1.750651108314
 H    1.334852215354    2.632906239091   -1.748298797007
 C   -0.805538074295    1.125130700614   -1.940058293231
 N   -1.429067385486    2.364096401244   -1.930180084213
 C   -2.728992872643    2.056017012883   -1.938634937371
 H   -3.539046401430    2.782597813985   -1.934586799508
 H   -3.874355446581    0.238747330249   -1.961273327848
CS    0.825214299140   -0.570026129028    1.973068914556
