16

 N   -2.968176613023    0.699393203028   -2.152051501635
 C   -1.736050880756    0.069102923020   -2.151096541327
 N   -1.465909944630   -1.251782551948   -2.154560730274
 C   -0.137780776167   -1.469976444698   -2.138993301611
 H    0.176027506803   -2.516655177188   -2.135613730920
 N    0.874568666874   -0.561995487557   -2.125022031336
 C    0.562351922967    0.748825595692   -2.129668435236
 N    1.569978877769    1.673324232997   -2.171490272167
 H    2.501430415156    1.342794124245   -1.949032338034
 H    1.337241371742    2.633294988036   -1.946680026727
 C   -0.803148917907    1.125519449559   -2.138439522951
 N   -1.426678229098    2.364485150189   -2.128561313933
 C   -2.726603716255    2.056405761828   -2.137016167091
 H   -3.536657245042    2.782986562930   -2.132968029228
 H   -3.871966290193    0.239136079194   -2.159654557568
CS    0.822786510775   -0.570421163933    2.174657912135
