16

 N   -2.966384745732    0.699684764736   -2.300837423925
 C   -1.734259013465    0.069394484728   -2.299882463617
 N   -1.464118077339   -1.251490990240   -2.303346652564
 C   -0.135988908876   -1.469684882990   -2.287779223901
 H    0.177819374094   -2.516363615480   -2.284399653210
 N    0.876360534165   -0.561703925849   -2.273807953626
 C    0.564143790258    0.749117157400   -2.278454357526
 N    1.571770745060    1.673615794705   -2.320276194457
 H    2.503222282447    1.343085685953   -2.097818260324
 H    1.339033239033    2.633586549744   -2.095465949017
 C   -0.801357050616    1.125811011267   -2.287225445241
 N   -1.424886361807    2.364776711897   -2.277347236223
 C   -2.724811848964    2.056697323536   -2.285802089381
 H   -3.534865377751    2.783278124638   -2.281753951518
 H   -3.870174422902    0.239427640902   -2.308440479858
CS    0.820965669501   -0.570717440111    2.325849660320
