16

 N   -2.965190167538    0.699879139209   -2.400028038785
 C   -1.733064435271    0.069588859201   -2.399073078477
 N   -1.462923499145   -1.251296615767   -2.402537267424
 C   -0.134794330682   -1.469490508517   -2.386969838761
 H    0.179013952288   -2.516169241007   -2.383590268070
 N    0.877555112359   -0.561509551376   -2.372998568486
 C    0.565338368452    0.749311531873   -2.377644972386
 N    1.572965323254    1.673810169178   -2.419466809317
 H    2.504416860641    1.343280060426   -2.197008875184
 H    1.340227817227    2.633780924217   -2.194656563877
 C   -0.800162472422    1.126005385740   -2.386416060101
 N   -1.423691783613    2.364971086370   -2.376537851083
 C   -2.723617270770    2.056891698009   -2.384992704241
 H   -3.533670799557    2.783472499111   -2.380944566378
 H   -3.868979844708    0.239622015375   -2.407631094718
CS    0.819751775319   -0.570914957563    2.426644159110
