16

 N   -2.964592878441    0.699976326445   -2.449623346215
 C   -1.732467146174    0.069686046437   -2.448668385907
 N   -1.462326210048   -1.251199428531   -2.452132574854
 C   -0.134197041585   -1.469393321281   -2.436565146191
 H    0.179611241385   -2.516072053771   -2.433185575500
 N    0.878152401456   -0.561412364140   -2.422593875916
 C    0.565935657549    0.749408719109   -2.427240279816
 N    1.573562612351    1.673907356414   -2.469062116747
 H    2.505014149738    1.343377247662   -2.246604182614
 H    1.340825106324    2.633878111453   -2.244251871307
 C   -0.799565183325    1.126102572976   -2.436011367531
 N   -1.423094494516    2.365068273606   -2.426133158513
 C   -2.723019981673    2.056988885245   -2.434588011671
 H   -3.533073510460    2.783569686347   -2.430539873808
 H   -3.868382555611    0.239719202611   -2.457226402148
CS    0.819144828227   -0.571013716289    2.477041408505
