16

 N   -2.963995589343    0.700073513681   -2.499218653645
 C   -1.731869857076    0.069783233673   -2.498263693337
 N   -1.461728920950   -1.251102241295   -2.501727882284
 C   -0.133599752487   -1.469296134045   -2.486160453621
 H    0.180208530483   -2.515974866535   -2.482780882930
 N    0.878749690554   -0.561315176904   -2.472189183346
 C    0.566532946647    0.749505906345   -2.476835587246
 N    1.574159901449    1.674004543650   -2.518657424177
 H    2.505611438836    1.343474434898   -2.296199490044
 H    1.341422395422    2.633975298689   -2.293847178737
 C   -0.798967894227    1.126199760212   -2.485606674961
 N   -1.422497205418    2.365165460842   -2.475728465943
 C   -2.722422692575    2.057086072481   -2.484183319101
 H   -3.532476221362    2.783666873583   -2.480135181238
 H   -3.867785266513    0.239816389847   -2.506821709578
CS    0.818537881136   -0.571112475015    2.527438657900
