16

 N   -2.960411854761    0.700656637098   -2.796790498225
 C   -1.728286122494    0.070366357090   -2.795835537917
 N   -1.458145186368   -1.250519117878   -2.799299726864
 C   -0.130016017905   -1.468713010628   -2.783732298201
 H    0.183792265065   -2.515391743118   -2.780352727510
 N    0.882333425136   -0.560732053487   -2.769761027926
 C    0.570116681229    0.750089029762   -2.774407431826
 N    1.577743636031    1.674587667067   -2.816229268757
 H    2.509195173418    1.344057558315   -2.593771334624
 H    1.345006130004    2.634558422106   -2.591419023317
 C   -0.795384159645    1.126782883629   -2.783178519541
 N   -1.418913470836    2.365748584259   -2.773300310523
 C   -2.718838957993    2.057669195898   -2.781755163681
 H   -3.528892486780    2.784249997000   -2.777707025818
 H   -3.864201531931    0.240399513264   -2.804393554158
CS    0.814896198588   -0.571705027371    2.829822154269
