16

 N   -2.959814565664    0.700753824334   -2.846385805655
 C   -1.727688833397    0.070463544326   -2.845430845347
 N   -1.457547897271   -1.250421930642   -2.848895034294
 C   -0.129418728808   -1.468615823392   -2.833327605631
 H    0.184389554162   -2.515294555882   -2.829948034940
 N    0.882930714233   -0.560634866251   -2.819356335356
 C    0.570713970326    0.750186216998   -2.824002739256
 N    1.578340925128    1.674684854303   -2.865824576187
 H    2.509792462515    1.344154745551   -2.643366642054
 H    1.345603419101    2.634655609342   -2.641014330747
 C   -0.794786870548    1.126880070865   -2.832773826971
 N   -1.418316181739    2.365845771495   -2.822895617953
 C   -2.718241668896    2.057766383134   -2.831350471111
 H   -3.528295197683    2.784347184236   -2.827302333248
 H   -3.863604242834    0.240496700500   -2.853988861588
CS    0.814289251497   -0.571803786097    2.880219403664
