16

 N   -2.959217276567    0.700851011570   -2.895981113085
 C   -1.727091544300    0.070560731562   -2.895026152777
 N   -1.456950608174   -1.250324743406   -2.898490341724
 C   -0.128821439711   -1.468518636156   -2.882922913061
 H    0.184986843259   -2.515197368646   -2.879543342370
 N    0.883528003330   -0.560537679015   -2.868951642786
 C    0.571311259423    0.750283404234   -2.873598046686
 N    1.578938214225    1.674782041539   -2.915419883617
 H    2.510389751612    1.344251932787   -2.692961949484
 H    1.346200708198    2.634752796578   -2.690609638177
 C   -0.794189581451    1.126977258101   -2.882369134401
 N   -1.417718892642    2.365942958731   -2.872490925383
 C   -2.717644379799    2.057863570370   -2.880945778541
 H   -3.527697908586    2.784444371472   -2.876897640678
 H   -3.863006953737    0.240593887736   -2.903584169018
CS    0.813682304406   -0.571902544823    2.930616653059
