16

 N   -2.958619987470    0.700948198807   -2.945576420515
 C   -1.726494255203    0.070657918799   -2.944621460207
 N   -1.456353319077   -1.250227556169   -2.948085649154
 C   -0.128224150614   -1.468421448919   -2.932518220491
 H    0.185584132356   -2.515100181409   -2.929138649800
 N    0.884125292427   -0.560440491778   -2.918546950216
 C    0.571908548520    0.750380591471   -2.923193354116
 N    1.579535503322    1.674879228776   -2.965015191047
 H    2.510987040709    1.344349120024   -2.742557256914
 H    1.346797997295    2.634849983815   -2.740204945607
 C   -0.793592292354    1.127074445338   -2.931964441831
 N   -1.417121603545    2.366040145968   -2.922086232813
 C   -2.717047090702    2.057960757607   -2.930541085971
 H   -3.527100619489    2.784541558709   -2.926492948108
 H   -3.862409664640    0.240691074973   -2.953179476448
CS    0.813075357314   -0.572001303549    2.981013902454
