16

 N   -2.958022698373    0.701045386043   -2.995171727945
 C   -1.725896966106    0.070755106035   -2.994216767637
 N   -1.455756029980   -1.250130368933   -2.997680956584
 C   -0.127626861517   -1.468324261683   -2.982113527921
 H    0.186181421453   -2.515002994173   -2.978733957230
 N    0.884722581524   -0.560343304542   -2.968142257646
 C    0.572505837617    0.750477778707   -2.972788661546
 N    1.580132792419    1.674976416012   -3.014610498477
 H    2.511584329806    1.344446307260   -2.792152564344
 H    1.347395286392    2.634947171051   -2.789800253037
 C   -0.792995003257    1.127171632574   -2.981559749261
 N   -1.416524314448    2.366137333204   -2.971681540243
 C   -2.716449801605    2.058057944843   -2.980136393401
 H   -3.526503330392    2.784638745945   -2.976088255538
 H   -3.861812375543    0.240788262209   -3.002774783878
CS    0.812468410223   -0.572100062275    3.031411151849
