16

 N   -2.955633541984    0.701434134987   -3.193552957665
 C   -1.723507809717    0.071143854979   -3.192597997357
 N   -1.453366873591   -1.249741619989   -3.196062186304
 C   -0.125237705128   -1.467935512739   -3.180494757641
 H    0.188570577842   -2.514614245229   -3.177115186950
 N    0.887111737913   -0.559954555598   -3.166523487366
 C    0.574894994006    0.750866527651   -3.171169891266
 N    1.582521948808    1.675365164956   -3.212991728197
 H    2.513973486195    1.344835056204   -2.990533794064
 H    1.349784442781    2.635335919995   -2.988181482757
 C   -0.790605846868    1.127560381518   -3.179940978981
 N   -1.414135158059    2.366526082148   -3.170062769963
 C   -2.714060645216    2.058446693787   -3.178517623121
 H   -3.524114174003    2.785027494889   -3.174469485258
 H   -3.859423219154    0.241177011153   -3.201156013598
CS    0.810040621858   -0.572495097180    3.233000149428
