16

 N   -2.955036252887    0.701531322224   -3.243148265095
 C   -1.722910520620    0.071241042216   -3.242193304787
 N   -1.452769584494   -1.249644432752   -3.245657493734
 C   -0.124640416031   -1.467838325502   -3.230090065071
 H    0.189167866939   -2.514517057992   -3.226710494380
 N    0.887709027010   -0.559857368361   -3.216118794796
 C    0.575492283103    0.750963714888   -3.220765198696
 N    1.583119237905    1.675462352193   -3.262587035627
 H    2.514570775292    1.344932243441   -3.040129101494
 H    1.350381731878    2.635433107232   -3.037776790187
 C   -0.790008557771    1.127657568755   -3.229536286411
 N   -1.413537868962    2.366623269385   -3.219658077393
 C   -2.713463356119    2.058543881024   -3.228112930551
 H   -3.523516884906    2.785124682126   -3.224064792688
 H   -3.858825930057    0.241274198390   -3.250751321028
CS    0.809433674767   -0.572593855906    3.283397398823
