16

 N   -2.952647096499    0.701920071168   -3.441529494815
 C   -1.720521364232    0.071629791160   -3.440574534507
 N   -1.450380428106   -1.249255683808   -3.444038723454
 C   -0.122251259643   -1.467449576558   -3.428471294791
 H    0.191557023327   -2.514128309048   -3.425091724100
 N    0.890098183398   -0.559468619417   -3.414500024516
 C    0.577881439491    0.751352463832   -3.419146428416
 N    1.585508394293    1.675851101137   -3.460968265347
 H    2.516959931680    1.345320992385   -3.238510331214
 H    1.352770888266    2.635821856176   -3.236158019907
 C   -0.787619401383    1.128046317699   -3.427917516131
 N   -1.411148712574    2.367012018329   -3.418039307113
 C   -2.711074199731    2.058932629968   -3.426494160271
 H   -3.521127728518    2.785513431070   -3.422446022408
 H   -3.856436773669    0.241662947334   -3.449132550748
CS    0.807005886402   -0.572988890810    3.484986396403
