16

 N   -2.951452518305    0.702114445641   -3.540720109675
 C   -1.719326786038    0.071824165633   -3.539765149367
 N   -1.449185849912   -1.249061309335   -3.543229338314
 C   -0.121056681449   -1.467255202085   -3.527661909651
 H    0.192751601521   -2.513933934575   -3.524282338960
 N    0.891292761592   -0.559274244944   -3.513690639376
 C    0.579076017685    0.751546838305   -3.518337043276
 N    1.586702972487    1.676045475610   -3.560158880207
 H    2.518154509874    1.345515366858   -3.337700946074
 H    1.353965466460    2.636016230649   -3.335348634767
 C   -0.786424823189    1.128240692172   -3.527108130991
 N   -1.409954134380    2.367206392802   -3.517229921973
 C   -2.709879621537    2.059127004441   -3.525684775131
 H   -3.519933150324    2.785707805543   -3.521636637268
 H   -3.855242195475    0.241857321807   -3.548323165608
CS    0.805791992219   -0.573186408262    3.585780895192
