16

 N   -2.950257940111    0.702308820113   -3.639910724535
 C   -1.718132207844    0.072018540105   -3.638955764227
 N   -1.447991271718   -1.248866934863   -3.642419953174
 C   -0.119862103255   -1.467060827613   -3.626852524511
 H    0.193946179715   -2.513739560103   -3.623472953820
 N    0.892487339786   -0.559079870472   -3.612881254236
 C    0.580270595879    0.751741212777   -3.617527658136
 N    1.587897550681    1.676239850082   -3.659349495067
 H    2.519349088068    1.345709741330   -3.436891560934
 H    1.355160044654    2.636210605121   -3.434539249627
 C   -0.785230244995    1.128435066644   -3.626298745851
 N   -1.408759556186    2.367400767274   -3.616420536833
 C   -2.708685043343    2.059321378913   -3.624875389991
 H   -3.518738572130    2.785902180015   -3.620827252128
 H   -3.854047617281    0.242051696279   -3.647513780468
CS    0.804578098037   -0.573383925714    3.686575393982
