16

 N   -2.945479627334    0.703086318002   -4.036673183975
 C   -1.713353895067    0.072796037994   -4.035718223667
 N   -1.443212958941   -1.248089436974   -4.039182412614
 C   -0.115083790478   -1.466283329724   -4.023614983951
 H    0.198724492492   -2.512962062214   -4.020235413260
 N    0.897265652563   -0.558302372583   -4.009643713676
 C    0.585048908656    0.752518710666   -4.014290117576
 N    1.592675863458    1.677017347971   -4.056111954507
 H    2.524127400845    1.346487239219   -3.833654020374
 H    1.359938357431    2.636988103010   -3.831301709067
 C   -0.780451932218    1.129212564533   -4.023061205291
 N   -1.403981243409    2.368178265163   -4.013182996273
 C   -2.703906730566    2.060098876802   -4.021637849431
 H   -3.513960259353    2.786679677904   -4.017589711568
 H   -3.849269304504    0.242829194168   -4.044276239908
CS    0.799722521306   -0.574173995522    4.089753389141
