16

 N   -2.943687760043    0.703377879711   -4.185459106265
 C   -1.711562027776    0.073087599703   -4.184504145957
 N   -1.441421091650   -1.247797875265   -4.187968334904
 C   -0.113291923187   -1.465991768015   -4.172400906241
 H    0.200516359783   -2.512670500505   -4.169021335550
 N    0.899057519854   -0.558010810874   -4.158429635966
 C    0.586840775947    0.752810272375   -4.163076039866
 N    1.594467730749    1.677308909680   -4.204897876797
 H    2.525919268136    1.346778800928   -3.982439942664
 H    1.361730224722    2.637279664719   -3.980087631357
 C   -0.778660064927    1.129504126242   -4.171847127581
 N   -1.402189376118    2.368469826872   -4.161968918563
 C   -2.702114863275    2.060390438511   -4.170423771721
 H   -3.512168392062    2.786971239613   -4.166375633858
 H   -3.847477437213    0.243120755877   -4.193062162198
CS    0.797901680032   -0.574470271700    4.240945137326
