16

 N   -2.942493181849    0.703572254183   -4.284649721125
 C   -1.710367449582    0.073281974175   -4.283694760817
 N   -1.440226513456   -1.247603500793   -4.287158949764
 C   -0.112097344993   -1.465797393543   -4.271591521101
 H    0.201710937977   -2.512476126033   -4.268211950410
 N    0.900252098048   -0.557816436402   -4.257620250826
 C    0.588035354141    0.753004646847   -4.262266654726
 N    1.595662308943    1.677503284152   -4.304088491657
 H    2.527113846330    1.346973175400   -4.081630557524
 H    1.362924802916    2.637474039191   -4.079278246217
 C   -0.777465486733    1.129698500714   -4.271037742441
 N   -1.400994797924    2.368664201344   -4.261159533423
 C   -2.700920285081    2.060584812983   -4.269614386581
 H   -3.510973813868    2.787165614085   -4.265566248718
 H   -3.846282859019    0.243315130349   -4.292252777058
CS    0.796687785850   -0.574667789152    4.341739636116
