16

 N   -2.940701314558    0.703863815892   -4.433435643415
 C   -1.708575582291    0.073573535884   -4.432480683107
 N   -1.438434646165   -1.247311939084   -4.435944872054
 C   -0.110305477702   -1.465505831834   -4.420377443391
 H    0.203502805268   -2.512184564324   -4.416997872700
 N    0.902043965339   -0.557524874693   -4.406406173116
 C    0.589827221432    0.753296208556   -4.411052577016
 N    1.597454176234    1.677794845861   -4.452874413947
 H    2.528905713621    1.347264737109   -4.230416479814
 H    1.364716670207    2.637765600900   -4.228064168507
 C   -0.775673619442    1.129990062423   -4.419823664731
 N   -1.399202930633    2.368955763053   -4.409945455713
 C   -2.699128417790    2.060876374692   -4.418400308871
 H   -3.509181946577    2.787457175794   -4.414352171008
 H   -3.844490991728    0.243606692058   -4.441038699348
CS    0.794866944576   -0.574964065331    4.492931384301
