16

 N   -2.940104025461    0.703961003128   -4.483030950845
 C   -1.707978293194    0.073670723120   -4.482075990537
 N   -1.437837357068   -1.247214751848   -4.485540179484
 C   -0.109708188605   -1.465408644598   -4.469972750821
 H    0.204100094365   -2.512087377088   -4.466593180130
 N    0.902641254436   -0.557427687457   -4.456001480546
 C    0.590424510529    0.753393395792   -4.460647884446
 N    1.598051465331    1.677892033097   -4.502469721377
 H    2.529503002718    1.347361924345   -4.280011787244
 H    1.365313959304    2.637862788136   -4.277659475937
 C   -0.775076330345    1.130087249659   -4.469418972161
 N   -1.398605641536    2.369052950289   -4.459540763143
 C   -2.698531128693    2.060973561928   -4.467995616301
 H   -3.508584657480    2.787554363030   -4.463947478438
 H   -3.843893702631    0.243703879294   -4.490634006778
CS    0.794259997485   -0.575062824057    4.543328633696
