16

 N   -2.939506736364    0.704058190364   -4.532626258275
 C   -1.707381004097    0.073767910356   -4.531671297967
 N   -1.437240067971   -1.247117564612   -4.535135486914
 C   -0.109110899508   -1.465311457362   -4.519568058251
 H    0.204697383462   -2.511990189852   -4.516188487560
 N    0.903238543533   -0.557330500221   -4.505596787976
 C    0.591021799626    0.753490583028   -4.510243191876
 N    1.598648754428    1.677989220333   -4.552065028807
 H    2.530100291815    1.347459111581   -4.329607094674
 H    1.365911248401    2.637959975372   -4.327254783367
 C   -0.774479041248    1.130184436895   -4.519014279591
 N   -1.398008352439    2.369150137525   -4.509136070573
 C   -2.697933839596    2.061070749164   -4.517590923731
 H   -3.507987368383    2.787651550266   -4.513542785868
 H   -3.843296413534    0.243801066530   -4.540229314208
CS    0.793653050393   -0.575161582783    4.593725883090
