16

 N   -2.938312158169    0.704252564836   -4.631816873135
 C   -1.706186425902    0.073962284828   -4.630861912827
 N   -1.436045489776   -1.246923190140   -4.634326101774
 C   -0.107916321313   -1.465117082890   -4.618758673111
 H    0.205891961657   -2.511795815380   -4.615379102420
 N    0.904433121728   -0.557136125749   -4.604787402836
 C    0.592216377821    0.753684957500   -4.609433806736
 N    1.599843332623    1.678183594805   -4.651255643667
 H    2.531294870010    1.347653486053   -4.428797709534
 H    1.367105826596    2.638154349844   -4.426445398227
 C   -0.773284463053    1.130378811367   -4.618204894451
 N   -1.396813774244    2.369344511997   -4.608326685433
 C   -2.696739261401    2.061265123636   -4.616781538591
 H   -3.506792790188    2.787845924738   -4.612733400728
 H   -3.842101835339    0.243995441002   -4.639419929068
CS    0.792439156211   -0.575359100235    4.694520381880
