16

 N   -2.936520290878    0.704544126545   -4.780602795425
 C   -1.704394558611    0.074253846537   -4.779647835117
 N   -1.434253622485   -1.246631628431   -4.783112024064
 C   -0.106124454022   -1.464825521181   -4.767544595401
 H    0.207683828948   -2.511504253671   -4.764165024710
 N    0.906224989019   -0.556844564040   -4.753573325126
 C    0.594008245112    0.753976519209   -4.758219729026
 N    1.601635199914    1.678475156514   -4.800041565957
 H    2.533086737301    1.347945047762   -4.577583631824
 H    1.368897693887    2.638445911553   -4.575231320517
 C   -0.771492595762    1.130670373076   -4.766990816741
 N   -1.395021906953    2.369636073706   -4.757112607723
 C   -2.694947394110    2.061556685345   -4.765567460881
 H   -3.505000922897    2.788137486447   -4.761519323018
 H   -3.840309968048    0.244287002711   -4.788205851358
CS    0.790618314937   -0.575655376413    4.845712130065
