16

 N   -2.935325712684    0.704738501017   -4.879793410285
 C   -1.703199980417    0.074448221009   -4.878838449977
 N   -1.433059044291   -1.246437253959   -4.882302638924
 C   -0.104929875828   -1.464631146709   -4.866735210261
 H    0.208878407142   -2.511309879199   -4.863355639570
 N    0.907419567213   -0.556650189568   -4.852763939986
 C    0.595202823306    0.754170893681   -4.857410343886
 N    1.602829778108    1.678669530986   -4.899232180817
 H    2.534281315495    1.348139422234   -4.676774246684
 H    1.370092272081    2.638640286025   -4.674421935377
 C   -0.770298017568    1.130864747548   -4.866181431601
 N   -1.393827328759    2.369830448178   -4.856303222583
 C   -2.693752815916    2.061751059817   -4.864758075741
 H   -3.503806344703    2.788331860919   -4.860709937878
 H   -3.839115389854    0.244481377183   -4.887396466218
CS    0.789404420754   -0.575852893865    4.946506628855
