16

 N   -2.934728423587    0.704835688254   -4.929388717715
 C   -1.702602691320    0.074545408246   -4.928433757407
 N   -1.432461755194   -1.246340066722   -4.931897946354
 C   -0.104332586731   -1.464533959472   -4.916330517691
 H    0.209475696239   -2.511212691962   -4.912950947000
 N    0.908016856310   -0.556553002331   -4.902359247416
 C    0.595800112403    0.754268080918   -4.907005651316
 N    1.603427067205    1.678766718223   -4.948827488247
 H    2.534878604592    1.348236609471   -4.726369554114
 H    1.370689561178    2.638737473262   -4.724017242807
 C   -0.769700728471    1.130961934785   -4.915776739031
 N   -1.393230039662    2.369927635415   -4.905898530013
 C   -2.693155526819    2.061848247054   -4.914353383171
 H   -3.503209055606    2.788429048156   -4.910305245308
 H   -3.838518100757    0.244578564420   -4.936991773648
CS    0.788797473663   -0.575951652591    4.996903878250
