6

 H   -0.390471634598    1.454024035665    2.203165530794
 H    0.059585365402   -0.207900964335    2.659665530794
 H   -1.602381634598    0.150710035665    2.128439530794
 C   -0.537312634598    0.388221035665    1.943082530794
 S   -0.054143634598    0.039120035665    0.195799530794
 K    0.259914480805   -0.187794361048   -0.939928146386
