6

 H   -0.402334685827    1.462595370015    2.246065857056
 H    0.047722314173   -0.199329629985    2.702565857056
 H   -1.614244685827    0.159281370015    2.171339857056
 C   -0.549175685827    0.396792370015    1.985982857056
 S   -0.066006685827    0.047691370015    0.238699857056
 K    0.274222939193   -0.198132559757   -0.991671793223
