6

 H   -0.414197737055    1.471166704366    2.288966183318
 H    0.035859262945   -0.190758295634    2.745466183318
 H   -1.626107737055    0.167852704366    2.214240183318
 C   -0.561038737055    0.405363704366    2.028883183318
 S   -0.077869737055    0.056262704366    0.281600183318
 K    0.288531397582   -0.208470758465   -1.043415440060
