6

 H   -0.426060788283    1.479738038717    2.331866509580
 H    0.023996211717   -0.182186961283    2.788366509580
 H   -1.637970788283    0.176424038717    2.257140509580
 C   -0.572901788283    0.413935038717    2.071783509580
 S   -0.089732788283    0.064834038717    0.324500509580
 K    0.302839855970   -0.218808957174   -1.095159086896
