6

 H   -0.437923839512    1.488309373068    2.374766835841
 H    0.012133160488   -0.173615626932    2.831266835841
 H   -1.649833839512    0.184995373068    2.300040835841
 C   -0.584764839512    0.422506373068    2.114683835841
 S   -0.101595839512    0.073405373068    0.367400835841
 K    0.317148314359   -0.229147155883   -1.146902733733
