6

 H   -0.449786890740    1.496880707418    2.417667162103
 H    0.000270109260   -0.165044292582    2.874167162103
 H   -1.661696890740    0.193566707418    2.342941162103
 C   -0.596627890740    0.431077707418    2.157584162103
 S   -0.113458890740    0.081976707418    0.410301162103
 K    0.331456772747   -0.239485354591   -1.198646380569
