6

 H   -0.461649941969    1.505452041769    2.460567488365
 H   -0.011592941969   -0.156472958231    2.917067488365
 H   -1.673559941969    0.202138041769    2.385841488365
 C   -0.608490941969    0.439649041769    2.200484488365
 S   -0.125321941969    0.090548041769    0.453201488365
 K    0.345765231136   -0.249823553300   -1.250390027406
