6

 H   -0.509102146882    1.539737379172    2.632168793412
 H   -0.059045146882   -0.122187620828    3.088668793412
 H   -1.721012146882    0.236423379172    2.557442793412
 C   -0.655943146882    0.473934379172    2.372085793412
 S   -0.172774146882    0.124833379172    0.624802793412
 K    0.402999064690   -0.291176348135   -1.457364614753
