6

 H   -0.520965198111    1.548308713523    2.675069119674
 H   -0.070908198111   -0.113616286477    3.131569119674
 H   -1.732875198111    0.244994713523    2.600343119674
 C   -0.667806198111    0.482505713523    2.414986119674
 S   -0.184637198111    0.133404713523    0.667703119674
 K    0.417307523078   -0.301514546844   -1.509108261589
