6

 H   -0.580280454253    1.591165385276    2.889570750982
 H   -0.130223454253   -0.070759614724    3.346070750982
 H   -1.792190454253    0.287851385276    2.814844750982
 C   -0.727121454253    0.525362385276    2.629487750982
 S   -0.243952454253    0.176261385276    0.882204750982
 K    0.488849815021   -0.353205540387   -1.767826495772
