6

 H   -0.592143505481    1.599736719627    2.932471077244
 H   -0.142086505481   -0.062188280373    3.388971077244
 H   -1.804053505481    0.296422719627    2.857745077244
 C   -0.738984505481    0.533933719627    2.672388077244
 S   -0.255815505481    0.184832719627    0.925105077244
 K    0.503158273409   -0.363543739096   -1.819570142609
