6

 H   -0.651458761624    1.642593391380    3.146972708553
 H   -0.201401761624   -0.019331608620    3.603472708553
 H   -1.863368761624    0.339279391380    3.072246708553
 C   -0.798299761624    0.576790391380    2.886889708553
 S   -0.315130761624    0.227689391380    1.139606708553
 K    0.574700565352   -0.415234732639   -2.078288376792
