6

 H   -0.734500120223    1.702592731835    3.447274992385
 H   -0.284443120223    0.040667731835    3.903774992385
 H   -1.946410120223    0.399278731835    3.372548992385
 C   -0.881341120223    0.636789731835    3.187191992385
 S   -0.398172120223    0.287688731835    1.439908992385
 K    0.674859774071   -0.487602123600   -2.440493904649
