6

 H   -0.817541478822    1.762592072290    3.747577276217
 H   -0.367484478822    0.100667072290    4.204077276217
 H   -2.029451478822    0.459278072290    3.672851276217
 C   -0.964382478822    0.696789072290    3.487494276217
 S   -0.481213478822    0.347688072290    1.740211276217
 K    0.775018982790   -0.559969514561   -2.802699432505
