6

 H   -0.853130632507    1.788306075342    3.876278255002
 H   -0.403073632507    0.126381075342    4.332778255002
 H   -2.065040632507    0.484992075342    3.801552255002
 C   -0.999971632507    0.722503075342    3.616195255002
 S   -0.516802632507    0.373402075342    1.868912255002
 K    0.817944357956   -0.590984110687   -2.957930373015
