6

 H   -0.876856734964    1.805448744044    3.962078907526
 H   -0.426799734964    0.143523744044    4.418578907526
 H   -2.088766734964    0.502134744044    3.887352907526
 C   -1.023697734964    0.739645744044    3.701995907526
 S   -0.540528734964    0.390544744044    1.954712907526
 K    0.846561274733   -0.611660508104   -3.061417666688
