6

 H   -0.888719786192    1.814020078394    4.004979233788
 H   -0.438662786192    0.152095078394    4.461479233788
 H   -2.100629786192    0.510706078394    3.930253233788
 C   -1.035560786192    0.748217078394    3.744896233788
 S   -0.552391786192    0.399116078394    1.997613233788
 K    0.860869733121   -0.621998706813   -3.113161313525
