6

 H   -0.936171991106    1.848305415797    4.176580538835
 H   -0.486114991106    0.186380415797    4.633080538835
 H   -2.148081991106    0.544991415797    4.101854538835
 C   -1.083012991106    0.782502415797    3.916497538835
 S   -0.599843991106    0.433401415797    2.169214538835
 K    0.918103566675   -0.663351501648   -3.320135900872
