6

 H   -0.971761144791    1.874019418849    4.305281517620
 H   -0.521704144791    0.212094418849    4.761781517620
 H   -2.183671144791    0.570705418849    4.230555517620
 C   -1.118602144791    0.808216418849    4.045198517620
 S   -0.635433144791    0.459115418849    2.297915517620
 K    0.961028941841   -0.694366097774   -3.475366841381
