6

 H   -1.042939452162    1.925447424954    4.562683475190
 H   -0.592882452162    0.263522424954    5.019183475190
 H   -2.254849452162    0.622133424954    4.487957475190
 C   -1.189780452162    0.859644424954    4.302600475190
 S   -0.706611452162    0.510543424954    2.555317475190
 K    1.046879692172   -0.756395290026   -3.785828722401
