6

 H   -1.090391657075    1.959732762356    4.734284780237
 H   -0.640334657075    0.297807762356    5.190784780237
 H   -2.302301657075    0.656418762356    4.659558780237
 C   -1.237232657075    0.893929762356    4.474201780237
 S   -0.754063657075    0.544828762356    2.726918780237
 K    1.104113525726   -0.797748084861   -3.992803309748
