6

 H   -1.102254708304    1.968304096707    4.777185106499
 H   -0.652197708304    0.306379096707    5.233685106499
 H   -2.314164708304    0.664990096707    4.702459106499
 C   -1.249095708304    0.902501096707    4.517102106499
 S   -0.765926708304    0.553400096707    2.769819106499
 K    1.118421984114   -0.808086283569   -4.044546956585
