6

 H   -1.114117759532    1.976875431058    4.820085432761
 H   -0.664060759532    0.314950431058    5.276585432761
 H   -2.326027759532    0.673561431058    4.745359432761
 C   -1.260958759532    0.911072431058    4.560002432761
 S   -0.777789759532    0.561971431058    2.812719432761
 K    1.132730442503   -0.818424482278   -4.096290603421
