6

 H   -1.125980810761    1.985446765408    4.862985759023
 H   -0.675923810761    0.323521765408    5.319485759023
 H   -2.337890810761    0.682132765408    4.788259759023
 C   -1.272821810761    0.919643765408    4.602902759023
 S   -0.789652810761    0.570542765408    2.855619759023
 K    1.147038900891   -0.828762680987   -4.148034250258
