6

 H   -1.149706913218    2.002589434110    4.948786411546
 H   -0.699649913218    0.340664434110    5.405286411546
 H   -2.361616913218    0.699275434110    4.874060411546
 C   -1.296547913218    0.936786434110    4.688703411546
 S   -0.813378913218    0.587685434110    2.941420411546
 K    1.175655817668   -0.849439078404   -4.251521543931
