6

 H   -1.161569964446    2.011160768461    4.991686737808
 H   -0.711512964446    0.349235768461    5.448186737808
 H   -2.373479964446    0.707846768461    4.916960737808
 C   -1.308410964446    0.945357768461    4.731603737808
 S   -0.825241964446    0.596256768461    2.984320737808
 K    1.189964276056   -0.859777277113   -4.303265190768
