6

 H   -1.197159118131    2.036874771513    5.120387716593
 H   -0.747102118131    0.374949771513    5.576887716593
 H   -2.409069118131    0.733560771513    5.045661716593
 C   -1.344000118131    0.971071771513    4.860304716593
 S   -0.860831118131    0.621970771513    3.113021716593
 K    1.232889651222   -0.890791873239   -4.458496131278
