6

 H   -1.209022169360    2.045446105863    5.163288042855
 H   -0.758965169360    0.383521105863    5.619788042855
 H   -2.420932169360    0.742132105863    5.088562042855
 C   -1.355863169360    0.979643105863    4.903205042855
 S   -0.872694169360    0.630542105863    3.155922042855
 K    1.247198109610   -0.901130071948   -4.510239778114
