6

 H   -1.339515732872    2.139730783721    5.635191631734
 H   -0.889458732872    0.477805783721    6.091691631734
 H   -2.551425732872    0.836416783721    5.560465631734
 C   -1.486356732872    1.073927783721    5.375108631734
 S   -1.003187732872    0.724826783721    3.627825631734
 K    1.404591151884   -1.014850257743   -5.079419893317
