6

 H   -1.351378784101    2.148302118072    5.678091957996
 H   -0.901321784101    0.486377118072    6.134591957996
 H   -2.563288784101    0.844988118072    5.603365957996
 C   -1.498219784101    1.082499118072    5.418008957996
 S   -1.015050784101    0.733398118072    3.670725957996
 K    1.418899610272   -1.025188456452   -5.131163540154
