14

 P   -0.893356109286    0.502987934189    0.205962654035
 O   -1.480356109286    1.552987934189    1.160962654035
 O   -1.159356109286    0.550987934189   -1.306037345965
 O    0.769643890714    0.328987934189    0.492962654035
 O   -1.208356109286   -1.055012065811    0.797962654035
 C    1.506643890714    1.493987934189    0.115962654035
 H    1.175643890714    2.376987934189    0.691962654035
 H    1.391643890714    1.704987934189   -0.962037345965
 H    2.566643890714    1.291987934189    0.335962654035
 C   -2.599356109286   -1.378012065811    0.747962654035
 H   -2.977356109286   -1.351012065811   -0.290037345965
 H   -3.192356109286   -0.679012065811    1.363962654035
 H   -2.709356109286   -2.398012065811    1.147962654035
CS    0.705740233026   -0.300700146540   -0.281252589630
