14

 P   -0.883476753613    0.600336235336    0.325654515767
 O   -1.470476753613    1.650336235336    1.280654515767
 O   -1.149476753613    0.648336235336   -1.186345484233
 O    0.779523246387    0.426336235336    0.612654515767
 O   -1.198476753613   -0.957663764664    0.917654515767
 C    1.516523246387    1.591336235336    0.235654515767
 H    1.185523246387    2.474336235336    0.811654515767
 H    1.401523246387    1.802336235336   -0.842345484233
 H    2.576523246387    1.389336235336    0.455654515767
 C   -2.589476753613   -1.280663764664    0.867654515767
 H   -2.967476753613   -1.253663764664   -0.170345484233
 H   -3.182476753613   -0.581663764664    1.483654515767
 H   -2.699476753613   -2.300663764664    1.267654515767
CS    0.696448491394   -0.392258269611   -0.393825300997
