14

 P   -0.860424923708    0.827482271346    0.604935526476
 O   -1.447424923708    1.877482271346    1.559935526476
 O   -1.126424923708    0.875482271346   -0.907064473524
 O    0.802575076292    0.653482271346    0.891935526476
 O   -1.175424923708   -0.730517728654    1.196935526476
 C    1.539575076292    1.818482271346    0.514935526476
 H    1.208575076292    2.701482271346    1.090935526476
 H    1.424575076292    2.029482271346   -0.563064473524
 H    2.599575076292    1.616482271346    0.734935526476
 C   -2.566424923708   -1.053517728654    1.146935526476
 H   -2.944424923708   -1.026517728654    0.108935526476
 H   -3.159424923708   -0.354517728654    1.762935526476
 H   -2.676424923708   -2.073517728654    1.546935526476
CS    0.674767760918   -0.605893890111   -0.656494960853
