14

 P   -0.853838686592    0.892381138778    0.684730100964
 O   -1.440838686592    1.942381138778    1.639730100964
 O   -1.119838686592    0.940381138778   -0.827269899036
 O    0.809161313408    0.718381138778    0.971730100964
 O   -1.168838686592   -0.665618861222    1.276730100964
 C    1.546161313408    1.883381138778    0.594730100964
 H    1.215161313408    2.766381138778    1.170730100964
 H    1.431161313408    2.094381138778   -0.483269899036
 H    2.606161313408    1.681381138778    0.814730100964
 C   -2.559838686592   -0.988618861222    1.226730100964
 H   -2.937838686592   -0.961618861222    0.188730100964
 H   -3.152838686592   -0.289618861222    1.842730100964
 H   -2.669838686592   -2.008618861222    1.626730100964
CS    0.668573266496   -0.666932638825   -0.731543435098
