14

 P   -0.850545568034    0.924830572493    0.724627388208
 O   -1.437545568034    1.974830572493    1.679627388208
 O   -1.116545568034    0.972830572493   -0.787372611792
 O    0.812454431966    0.750830572493    1.011627388208
 O   -1.165545568034   -0.633169427507    1.316627388208
 C    1.549454431966    1.915830572493    0.634627388208
 H    1.218454431966    2.798830572493    1.210627388208
 H    1.434454431966    2.126830572493   -0.443372611792
 H    2.609454431966    1.713830572493    0.854627388208
 C   -2.556545568034   -0.956169427507    1.266627388208
 H   -2.934545568034   -0.929169427507    0.228627388208
 H   -3.149545568034   -0.257169427507    1.882627388208
 H   -2.666545568034   -1.976169427507    1.666627388208
CS    0.665476019285   -0.697452013182   -0.769067672221
