14

 P   -0.847252449476    0.957280006209    0.764524675452
 O   -1.434252449476    2.007280006209    1.719524675452
 O   -1.113252449476    1.005280006209   -0.747475324548
 O    0.815747550524    0.783280006209    1.051524675452
 O   -1.162252449476   -0.600719993791    1.356524675452
 C    1.552747550524    1.948280006209    0.674524675452
 H    1.221747550524    2.831280006209    1.250524675452
 H    1.437747550524    2.159280006209   -0.403475324548
 H    2.612747550524    1.746280006209    0.894524675452
 C   -2.553252449476   -0.923719993791    1.306524675452
 H   -2.931252449476   -0.896719993791    0.268524675452
 H   -3.146252449476   -0.224719993791    1.922524675452
 H   -2.663252449476   -1.943719993791    1.706524675452
CS    0.662378772074   -0.727971387540   -0.806591909343
