14

 P   -0.843959330918    0.989729439925    0.804421962696
 O   -1.430959330918    2.039729439925    1.759421962696
 O   -1.109959330918    1.037729439925   -0.707578037304
 O    0.819040669082    0.815729439925    1.091421962696
 O   -1.158959330918   -0.568270560075    1.396421962696
 C    1.556040669082    1.980729439925    0.714421962696
 H    1.225040669082    2.863729439925    1.290421962696
 H    1.441040669082    2.191729439925   -0.363578037304
 H    2.616040669082    1.778729439925    0.934421962696
 C   -2.549959330918   -0.891270560075    1.346421962696
 H   -2.927959330918   -0.864270560075    0.308421962696
 H   -3.142959330918   -0.192270560075    1.962421962696
 H   -2.659959330918   -1.911270560075    1.746421962696
CS    0.659281524864   -0.758490761897   -0.844116146465
