14

 P   -0.840666212361    1.022178873641    0.844319249940
 O   -1.427666212361    2.072178873641    1.799319249940
 O   -1.106666212361    1.070178873641   -0.667680750060
 O    0.822333787639    0.848178873641    1.131319249940
 O   -1.155666212361   -0.535821126359    1.436319249940
 C    1.559333787639    2.013178873641    0.754319249940
 H    1.228333787639    2.896178873641    1.330319249940
 H    1.444333787639    2.224178873641   -0.323680750060
 H    2.619333787639    1.811178873641    0.974319249940
 C   -2.546666212361   -0.858821126359    1.386319249940
 H   -2.924666212361   -0.831821126359    0.348319249940
 H   -3.139666212361   -0.159821126359    2.002319249940
 H   -2.656666212361   -1.878821126359    1.786319249940
CS    0.656184277653   -0.789010136254   -0.881640383588
