14

 P   -0.837373093803    1.054628307356    0.884216537184
 O   -1.424373093803    2.104628307356    1.839216537184
 O   -1.103373093803    1.102628307356   -0.627783462816
 O    0.825626906197    0.880628307356    1.171216537184
 O   -1.152373093803   -0.503371692644    1.476216537184
 C    1.562626906197    2.045628307356    0.794216537184
 H    1.231626906197    2.928628307356    1.370216537184
 H    1.447626906197    2.256628307356   -0.283783462816
 H    2.622626906197    1.843628307356    1.014216537184
 C   -2.543373093803   -0.826371692644    1.426216537184
 H   -2.921373093803   -0.799371692644    0.388216537184
 H   -3.136373093803   -0.127371692644    2.042216537184
 H   -2.653373093803   -1.846371692644    1.826216537184
CS    0.653087030442   -0.819529510611   -0.919164620710
