14

 P   -0.824200619571    1.184426042219    1.043805686160
 O   -1.411200619571    2.234426042219    1.998805686160
 O   -1.090200619571    1.232426042219   -0.468194313840
 O    0.838799380429    1.010426042219    1.330805686160
 O   -1.139200619571   -0.373573957781    1.635805686160
 C    1.575799380429    2.175426042219    0.953805686160
 H    1.244799380429    3.058426042219    1.529805686160
 H    1.460799380429    2.386426042219   -0.124194313840
 H    2.635799380429    1.973426042219    1.173805686160
 C   -2.530200619571   -0.696573957781    1.585805686160
 H   -2.908200619571   -0.669573957781    0.547805686160
 H   -3.123200619571    0.002426042219    2.201805686160
 H   -2.640200619571   -1.716573957781    1.985805686160
CS    0.640698041599   -0.941607008039   -1.069261569200
