14

 P   -0.820907501013    1.216875475935    1.083702973405
 O   -1.407907501013    2.266875475935    2.038702973405
 O   -1.086907501013    1.264875475935   -0.428297026595
 O    0.842092498987    1.042875475935    1.370702973405
 O   -1.135907501013   -0.341124524065    1.675702973405
 C    1.579092498987    2.207875475935    0.993702973405
 H    1.248092498987    3.090875475935    1.569702973405
 H    1.464092498987    2.418875475935   -0.084297026595
 H    2.639092498987    2.005875475935    1.213702973405
 C   -2.526907501013   -0.664124524065    1.625702973405
 H   -2.904907501013   -0.637124524065    0.587702973405
 H   -3.119907501013    0.034875475935    2.241702973405
 H   -2.636907501013   -1.684124524065    2.025702973405
CS    0.637600794388   -0.972126382397   -1.106785806322
