14

 P   -0.814321263898    1.281774343367    1.163497547893
 O   -1.401321263898    2.331774343367    2.118497547893
 O   -1.080321263898    1.329774343367   -0.348502452107
 O    0.848678736102    1.107774343367    1.450497547893
 O   -1.129321263898   -0.276225656633    1.755497547893
 C    1.585678736102    2.272774343367    1.073497547893
 H    1.254678736102    3.155774343367    1.649497547893
 H    1.470678736102    2.483774343367   -0.004502452107
 H    2.645678736102    2.070774343367    1.293497547893
 C   -2.520321263898   -0.599225656633    1.705497547893
 H   -2.898321263898   -0.572225656633    0.667497547893
 H   -3.113321263898    0.099774343367    2.321497547893
 H   -2.630321263898   -1.619225656633    2.105497547893
CS    0.631406299966   -1.033165131111   -1.181834280567
