14

 P   -0.787976315435    1.541369813092    1.482675845845
 O   -1.374976315435    2.591369813092    2.437675845845
 O   -1.053976315435    1.589369813092   -0.029324154155
 O    0.875023684565    1.367369813092    1.769675845845
 O   -1.102976315435   -0.016630186908    2.074675845845
 C    1.612023684565    2.532369813092    1.392675845845
 H    1.281023684565    3.415369813092    1.968675845845
 H    1.497023684565    2.743369813092    0.314675845845
 H    2.672023684565    2.330369813092    1.612675845845
 C   -2.493976315435   -0.339630186908    2.024675845845
 H   -2.871976315435   -0.312630186908    0.986675845845
 H   -3.086976315435    0.359369813092    2.640675845845
 H   -2.603976315435   -1.359630186908    2.424675845845
CS    0.606628322279   -1.277320125968   -1.482028177546
