14

 P   -0.781390078319    1.606268680524    1.562470420333
 O   -1.368390078319    2.656268680524    2.517470420333
 O   -1.047390078319    1.654268680524    0.050470420333
 O    0.881609921681    1.432268680524    1.849470420333
 O   -1.096390078319    0.048268680524    2.154470420333
 C    1.618609921681    2.597268680524    1.472470420333
 H    1.287609921681    3.480268680524    2.048470420333
 H    1.503609921681    2.808268680524    0.394470420333
 H    2.678609921681    2.395268680524    1.692470420333
 C   -2.487390078319   -0.274731319476    2.104470420333
 H   -2.865390078319   -0.247731319476    1.066470420333
 H   -3.080390078319    0.424268680524    2.720470420333
 H   -2.597390078319   -1.294731319476    2.504470420333
CS    0.600433827857   -1.338358874682   -1.557076651790
