14

 P   -0.778096959761    1.638718114240    1.602367707578
 O   -1.365096959761    2.688718114240    2.557367707578
 O   -1.044096959761    1.686718114240    0.090367707578
 O    0.884903040239    1.464718114240    1.889367707578
 O   -1.093096959761    0.080718114240    2.194367707578
 C    1.621903040239    2.629718114240    1.512367707578
 H    1.290903040239    3.512718114240    2.088367707578
 H    1.506903040239    2.840718114240    0.434367707578
 H    2.681903040239    2.427718114240    1.732367707578
 C   -2.484096959761   -0.242281885760    2.144367707578
 H   -2.862096959761   -0.215281885760    1.106367707578
 H   -3.077096959761    0.456718114240    2.760367707578
 H   -2.594096959761   -1.262281885760    2.544367707578
CS    0.597336580647   -1.368878249039   -1.594600888913
