14

 P   -0.768217604088    1.736066415387    1.722059569310
 O   -1.355217604088    2.786066415387    2.677059569310
 O   -1.034217604088    1.784066415387    0.210059569310
 O    0.894782395912    1.562066415387    2.009059569310
 O   -1.083217604088    0.178066415387    2.314059569310
 C    1.631782395912    2.727066415387    1.632059569310
 H    1.300782395912    3.610066415387    2.208059569310
 H    1.516782395912    2.938066415387    0.554059569310
 H    2.691782395912    2.525066415387    1.852059569310
 C   -2.474217604088   -0.144933584613    2.264059569310
 H   -2.852217604088   -0.117933584613    1.226059569310
 H   -3.067217604088    0.554066415387    2.880059569310
 H   -2.584217604088   -1.164933584613    2.664059569310
CS    0.588044839014   -1.460436372111   -1.707173600280
