14

 P   -0.761631366972    1.800965282818    1.801854143798
 O   -1.348631366972    2.850965282818    2.756854143798
 O   -1.027631366972    1.848965282818    0.289854143798
 O    0.901368633028    1.626965282818    2.088854143798
 O   -1.076631366972    0.242965282818    2.393854143798
 C    1.638368633028    2.791965282818    1.711854143798
 H    1.307368633028    3.674965282818    2.287854143798
 H    1.523368633028    3.002965282818    0.633854143798
 H    2.698368633028    2.589965282818    1.931854143798
 C   -2.467631366972   -0.080034717182    2.343854143798
 H   -2.845631366972   -0.053034717182    1.305854143798
 H   -3.060631366972    0.618965282818    2.959854143798
 H   -2.577631366972   -1.100034717182    2.743854143798
CS    0.581850344592   -1.521475120825   -1.782222074525
