14

 P   -0.755045129856    1.865864150250    1.881648718286
 O   -1.342045129856    2.915864150250    2.836648718286
 O   -1.021045129856    1.913864150250    0.369648718286
 O    0.907954870144    1.691864150250    2.168648718286
 O   -1.070045129856    0.307864150250    2.473648718286
 C    1.644954870144    2.856864150250    1.791648718286
 H    1.313954870144    3.739864150250    2.367648718286
 H    1.529954870144    3.067864150250    0.713648718286
 H    2.704954870144    2.654864150250    2.011648718286
 C   -2.461045129856   -0.015135849750    2.423648718286
 H   -2.839045129856    0.011864150250    1.385648718286
 H   -3.054045129856    0.683864150250    3.039648718286
 H   -2.571045129856   -1.035135849750    2.823648718286
CS    0.575655850171   -1.582513869539   -1.857270548769
