14

 P   -0.745165774183    1.963212451397    2.001340580018
 O   -1.332165774183    3.013212451397    2.956340580018
 O   -1.011165774183    2.011212451397    0.489340580018
 O    0.917834225817    1.789212451397    2.288340580018
 O   -1.060165774183    0.405212451397    2.593340580018
 C    1.654834225817    2.954212451397    1.911340580018
 H    1.323834225817    3.837212451397    2.487340580018
 H    1.539834225817    3.165212451397    0.833340580018
 H    2.714834225817    2.752212451397    2.131340580018
 C   -2.451165774183    0.082212451397    2.543340580018
 H   -2.829165774183    0.109212451397    1.505340580018
 H   -3.044165774183    0.781212451397    3.159340580018
 H   -2.561165774183   -0.937787548603    2.943340580018
CS    0.566364108538   -1.674071992610   -1.969843260137
