14

 P   -0.741872655625    1.995661885113    2.041237867262
 O   -1.328872655625    3.045661885113    2.996237867262
 O   -1.007872655625    2.043661885113    0.529237867262
 O    0.921127344375    1.821661885113    2.328237867262
 O   -1.056872655625    0.437661885113    2.633237867262
 C    1.658127344375    2.986661885113    1.951237867262
 H    1.327127344375    3.869661885113    2.527237867262
 H    1.543127344375    3.197661885113    0.873237867262
 H    2.718127344375    2.784661885113    2.171237867262
 C   -2.447872655625    0.114661885113    2.583237867262
 H   -2.825872655625    0.141661885113    1.545237867262
 H   -3.040872655625    0.813661885113    3.199237867262
 H   -2.557872655625   -0.905338114887    2.983237867262
CS    0.563266861327   -1.704591366968   -2.007367497259
