14

 P   -0.738579537067    2.028111318828    2.081135154507
 O   -1.325579537067    3.078111318828    3.036135154507
 O   -1.004579537067    2.076111318828    0.569135154507
 O    0.924420462933    1.854111318828    2.368135154507
 O   -1.053579537067    0.470111318828    2.673135154507
 C    1.661420462933    3.019111318828    1.991135154507
 H    1.330420462933    3.902111318828    2.567135154507
 H    1.546420462933    3.230111318828    0.913135154507
 H    2.721420462933    2.817111318828    2.211135154507
 C   -2.444579537067    0.147111318828    2.623135154507
 H   -2.822579537067    0.174111318828    1.585135154507
 H   -3.037579537067    0.846111318828    3.239135154507
 H   -2.554579537067   -0.872888681172    3.023135154507
CS    0.560169614116   -1.735110741325   -2.044891734381
