14

 P   -0.722113944277    2.190358487407    2.280621590727
 O   -1.309113944277    3.240358487407    3.235621590727
 O   -0.988113944277    2.238358487407    0.768621590727
 O    0.940886055723    2.016358487407    2.567621590727
 O   -1.037113944277    0.632358487407    2.872621590727
 C    1.677886055723    3.181358487407    2.190621590727
 H    1.346886055723    4.064358487407    2.766621590727
 H    1.562886055723    3.392358487407    1.112621590727
 H    2.737886055723    2.979358487407    2.410621590727
 C   -2.428113944277    0.309358487407    2.822621590727
 H   -2.806113944277    0.336358487407    1.784621590727
 H   -3.021113944277    1.008358487407    3.438621590727
 H   -2.538113944277   -0.710641512593    3.222621590727
CS    0.544683378062   -1.887707613110   -2.232512919993
