14

 P   -0.718820825720    2.222807921123    2.320518877971
 O   -1.305820825720    3.272807921123    3.275518877971
 O   -0.984820825720    2.270807921123    0.808518877971
 O    0.944179174280    2.048807921123    2.607518877971
 O   -1.033820825720    0.664807921123    2.912518877971
 C    1.681179174280    3.213807921123    2.230518877971
 H    1.350179174280    4.096807921123    2.806518877971
 H    1.566179174280    3.424807921123    1.152518877971
 H    2.741179174280    3.011807921123    2.450518877971
 C   -2.424820825720    0.341807921123    2.862518877971
 H   -2.802820825720    0.368807921123    1.824518877971
 H   -3.017820825720    1.040807921123    3.478518877971
 H   -2.534820825720   -0.678192078877    3.262518877971
CS    0.541586130851   -1.918226987467   -2.270037157116
