14

 P   -0.715527707162    2.255257354839    2.360416165215
 O   -1.302527707162    3.305257354839    3.315416165215
 O   -0.981527707162    2.303257354839    0.848416165215
 O    0.947472292838    2.081257354839    2.647416165215
 O   -1.030527707162    0.697257354839    2.952416165215
 C    1.684472292838    3.246257354839    2.270416165215
 H    1.353472292838    4.129257354839    2.846416165215
 H    1.569472292838    3.457257354839    1.192416165215
 H    2.744472292838    3.044257354839    2.490416165215
 C   -2.421527707162    0.374257354839    2.902416165215
 H   -2.799527707162    0.401257354839    1.864416165215
 H   -3.014527707162    1.073257354839    3.518416165215
 H   -2.531527707162   -0.645742645161    3.302416165215
CS    0.538488883640   -1.948746361825   -2.307561394238
