14

 P   -0.705648351488    2.352605655986    2.480108026947
 O   -1.292648351488    3.402605655986    3.435108026947
 O   -0.971648351488    2.400605655986    0.968108026947
 O    0.957351648512    2.178605655986    2.767108026947
 O   -1.020648351488    0.794605655986    3.072108026947
 C    1.694351648512    3.343605655986    2.390108026947
 H    1.363351648512    4.226605655986    2.966108026947
 H    1.579351648512    3.554605655986    1.312108026947
 H    2.754351648512    3.141605655986    2.610108026947
 C   -2.411648351488    0.471605655986    3.022108026947
 H   -2.789648351488    0.498605655986    1.984108026947
 H   -3.004648351488    1.170605655986    3.638108026947
 H   -2.521648351488   -0.548394344014    3.422108026947
CS    0.529197142008   -2.040304484896   -2.420134105605
