14

 P   -0.692475877257    2.482403390849    2.639697175924
 O   -1.279475877257    3.532403390849    3.594697175924
 O   -0.958475877257    2.530403390849    1.127697175924
 O    0.970524122743    2.308403390849    2.926697175924
 O   -1.007475877257    0.924403390849    3.231697175924
 C    1.707524122743    3.473403390849    2.549697175924
 H    1.376524122743    4.356403390849    3.125697175924
 H    1.592524122743    3.684403390849    1.471697175924
 H    2.767524122743    3.271403390849    2.769697175924
 C   -2.398475877257    0.601403390849    3.181697175924
 H   -2.776475877257    0.628403390849    2.143697175924
 H   -2.991475877257    1.300403390849    3.797697175924
 H   -2.508475877257   -0.418596609151    3.581697175924
CS    0.516808153164   -2.162381982324   -2.570231054094
