14

 P   -0.685889640141    2.547302258280    2.719491750412
 O   -1.272889640141    3.597302258280    3.674491750412
 O   -0.951889640141    2.595302258280    1.207491750412
 O    0.977110359859    2.373302258280    3.006491750412
 O   -1.000889640141    0.989302258280    3.311491750412
 C    1.714110359859    3.538302258280    2.629491750412
 H    1.383110359859    4.421302258280    3.205491750412
 H    1.599110359859    3.749302258280    1.551491750412
 H    2.774110359859    3.336302258280    2.849491750412
 C   -2.391889640141    0.666302258280    3.261491750412
 H   -2.769889640141    0.693302258280    2.223491750412
 H   -2.984889640141    1.365302258280    3.877491750412
 H   -2.501889640141   -0.353697741720    3.661491750412
CS    0.510613658743   -2.223420731039   -2.645279528339
