14

 P   -0.676010284467    2.644650559427    2.839183612144
 O   -1.263010284467    3.694650559427    3.794183612144
 O   -0.942010284467    2.692650559427    1.327183612144
 O    0.986989715533    2.470650559427    3.126183612144
 O   -0.991010284467    1.086650559427    3.431183612144
 C    1.723989715533    3.635650559427    2.749183612144
 H    1.392989715533    4.518650559427    3.325183612144
 H    1.608989715533    3.846650559427    1.671183612144
 H    2.783989715533    3.433650559427    2.969183612144
 C   -2.382010284467    0.763650559427    3.381183612144
 H   -2.760010284467    0.790650559427    2.343183612144
 H   -2.975010284467    1.462650559427    3.997183612144
 H   -2.492010284467   -0.256349440573    3.781183612144
CS    0.501321917110   -2.314978854110   -2.757852239706
