14

 P   -0.672717165910    2.677099993143    2.879080899388
 O   -1.259717165910    3.727099993143    3.834080899388
 O   -0.938717165910    2.725099993143    1.367080899388
 O    0.990282834090    2.503099993143    3.166080899388
 O   -0.987717165910    1.119099993143    3.471080899388
 C    1.727282834090    3.668099993143    2.789080899388
 H    1.396282834090    4.551099993143    3.365080899388
 H    1.612282834090    3.879099993143    1.711080899388
 H    2.787282834090    3.466099993143    3.009080899388
 C   -2.378717165910    0.796099993143    3.421080899388
 H   -2.756717165910    0.823099993143    2.383080899388
 H   -2.971717165910    1.495099993143    4.037080899388
 H   -2.488717165910   -0.223900006857    3.821080899388
CS    0.498224669899   -2.345498228467   -2.795376476829
