14

 P   -0.669424047352    2.709549426859    2.918978186632
 O   -1.256424047352    3.759549426859    3.873978186632
 O   -0.935424047352    2.757549426859    1.406978186632
 O    0.993575952648    2.535549426859    3.205978186632
 O   -0.984424047352    1.151549426859    3.510978186632
 C    1.730575952648    3.700549426859    2.828978186632
 H    1.399575952648    4.583549426859    3.404978186632
 H    1.615575952648    3.911549426859    1.750978186632
 H    2.790575952648    3.498549426859    3.048978186632
 C   -2.375424047352    0.828549426859    3.460978186632
 H   -2.753424047352    0.855549426859    2.422978186632
 H   -2.968424047352    1.527549426859    4.076978186632
 H   -2.485424047352   -0.191450573141    3.860978186632
CS    0.495127422688   -2.376017602824   -2.832900713951
