14

 P   -0.666130928794    2.741998860575    2.958875473876
 O   -1.253130928794    3.791998860575    3.913875473876
 O   -0.932130928794    2.789998860575    1.446875473876
 O    0.996869071206    2.567998860575    3.245875473876
 O   -0.981130928794    1.183998860575    3.550875473876
 C    1.733869071206    3.732998860575    2.868875473876
 H    1.402869071206    4.615998860575    3.444875473876
 H    1.618869071206    3.943998860575    1.790875473876
 H    2.793869071206    3.530998860575    3.088875473876
 C   -2.372130928794    0.860998860575    3.500875473876
 H   -2.750130928794    0.887998860575    2.462875473876
 H   -2.965130928794    1.559998860575    4.116875473876
 H   -2.482130928794   -0.159001139425    3.900875473876
CS    0.492030175478   -2.406536977181   -2.870424951073
