14

 P   -0.652958454562    2.871796595437    3.118464622853
 O   -1.239958454562    3.921796595437    4.073464622853
 O   -0.918958454562    2.919796595437    1.606464622853
 O    1.010041545438    2.697796595437    3.405464622853
 O   -0.967958454562    1.313796595437    3.710464622853
 C    1.747041545438    3.862796595437    3.028464622853
 H    1.416041545438    4.745796595437    3.604464622853
 H    1.632041545438    4.073796595437    1.950464622853
 H    2.807041545438    3.660796595437    3.248464622853
 C   -2.358958454562    0.990796595437    3.660464622853
 H   -2.736958454562    1.017796595437    2.622464622853
 H   -2.951958454562    1.689796595437    4.276464622853
 H   -2.468958454562   -0.029203404563    4.060464622853
CS    0.479641186634   -2.528614474610   -3.020521899563
