14

 P   -0.646372217447    2.936695462869    3.198259197341
 O   -1.233372217447    3.986695462869    4.153259197341
 O   -0.912372217447    2.984695462869    1.686259197341
 O    1.016627782553    2.762695462869    3.485259197341
 O   -0.961372217447    1.378695462869    3.790259197341
 C    1.753627782553    3.927695462869    3.108259197341
 H    1.422627782553    4.810695462869    3.684259197341
 H    1.638627782553    4.138695462869    2.030259197341
 H    2.813627782553    3.725695462869    3.328259197341
 C   -2.352372217447    1.055695462869    3.740259197341
 H   -2.730372217447    1.082695462869    2.702259197341
 H   -2.945372217447    1.754695462869    4.356259197341
 H   -2.462372217447    0.035695462869    4.140259197341
CS    0.473446692212   -2.589653223324   -3.095570373808
