14

 P   -0.643079098889    2.969144896585    3.238156484585
 O   -1.230079098889    4.019144896585    4.193156484585
 O   -0.909079098889    3.017144896585    1.726156484585
 O    1.019920901111    2.795144896585    3.525156484585
 O   -0.958079098889    1.411144896585    3.830156484585
 C    1.756920901111    3.960144896585    3.148156484585
 H    1.425920901111    4.843144896585    3.724156484585
 H    1.641920901111    4.171144896585    2.070156484585
 H    2.816920901111    3.758144896585    3.368156484585
 C   -2.349079098889    1.088144896585    3.780156484585
 H   -2.727079098889    1.115144896585    2.742156484585
 H   -2.942079098889    1.787144896585    4.396156484585
 H   -2.459079098889    0.068144896585    4.180156484585
CS    0.470349445002   -2.620172597681   -3.133094610930
