14

 P   -0.633199743215    3.066493197732    3.357848346317
 O   -1.220199743215    4.116493197732    4.312848346317
 O   -0.899199743215    3.114493197732    1.845848346317
 O    1.029800256785    2.892493197732    3.644848346317
 O   -0.948199743215    1.508493197732    3.949848346317
 C    1.766800256785    4.057493197732    3.267848346317
 H    1.435800256785    4.940493197732    3.843848346317
 H    1.651800256785    4.268493197732    2.189848346317
 H    2.826800256785    3.855493197732    3.487848346317
 C   -2.339199743215    1.185493197732    3.899848346317
 H   -2.717199743215    1.212493197732    2.861848346317
 H   -2.932199743215    1.884493197732    4.515848346317
 H   -2.449199743215    0.165493197732    4.299848346317
CS    0.461057703369   -2.711730720753   -3.245667322297
