14

 P   -0.629906624657    3.098942631448    3.397745633561
 O   -1.216906624657    4.148942631448    4.352745633561
 O   -0.895906624657    3.146942631448    1.885745633561
 O    1.033093375343    2.924942631448    3.684745633561
 O   -0.944906624657    1.540942631448    3.989745633561
 C    1.770093375343    4.089942631448    3.307745633561
 H    1.439093375343    4.972942631448    3.883745633561
 H    1.655093375343    4.300942631448    2.229745633561
 H    2.830093375343    3.887942631448    3.527745633561
 C   -2.335906624657    1.217942631448    3.939745633561
 H   -2.713906624657    1.244942631448    2.901745633561
 H   -2.928906624657    1.916942631448    4.555745633561
 H   -2.445906624657    0.197942631448    4.339745633561
CS    0.457960456158   -2.742250095110   -3.283191559420
