14

 P   -0.620027268984    3.196290932595    3.517437495293
 O   -1.207027268984    4.246290932595    4.472437495293
 O   -0.886027268984    3.244290932595    2.005437495293
 O    1.042972731016    3.022290932595    3.804437495293
 O   -0.935027268984    1.638290932595    4.109437495293
 C    1.779972731016    4.187290932595    3.427437495293
 H    1.448972731016    5.070290932595    4.003437495293
 H    1.664972731016    4.398290932595    2.349437495293
 H    2.839972731016    3.985290932595    3.647437495293
 C   -2.326027268984    1.315290932595    4.059437495293
 H   -2.704027268984    1.342290932595    3.021437495293
 H   -2.919027268984    2.014290932595    4.675437495293
 H   -2.436027268984    0.295290932595    4.459437495293
CS    0.448668714526   -2.833808218181   -3.395764270787
