14

 P   -0.613441031868    3.261189800026    3.597232069782
 O   -1.200441031868    4.311189800026    4.552232069782
 O   -0.879441031868    3.309189800026    2.085232069782
 O    1.049558968132    3.087189800026    3.884232069782
 O   -0.928441031868    1.703189800026    4.189232069782
 C    1.786558968132    4.252189800026    3.507232069782
 H    1.455558968132    5.135189800026    4.083232069782
 H    1.671558968132    4.463189800026    2.429232069782
 H    2.846558968132    4.050189800026    3.727232069782
 C   -2.319441031868    1.380189800026    4.139232069782
 H   -2.697441031868    1.407189800026    3.101232069782
 H   -2.912441031868    2.079189800026    4.755232069782
 H   -2.429441031868    0.360189800026    4.539232069782
CS    0.442474220104   -2.894846966896   -3.470812745031
