14

 N   -0.608410681070    1.959435616705    0.001402054270
 C   -1.693857623973    2.782194586533    0.004543925491
 H   -1.502336784091    3.857251559032    0.002039326949
 C   -0.690274401752    0.540165154979    0.002419723154
 O    0.353468845566   -0.113076735082   -0.000061118158
 N   -1.964112490433   -0.001974476614    0.013032957284
 C   -3.021798603246    0.799377554261    0.010539912456
 N   -4.253791719702    0.195578525181   -0.034865910753
 H   -4.262726188023   -0.804115361330    0.134704697812
 H   -5.072369463905    0.722006844581    0.240034214044
 C   -2.953216604812    2.240754393456    0.007056478790
 H   -3.841740320497    2.872071984700   -0.002425475237
 H    0.335529441857    2.334083829147   -0.001903841958
CS    1.540202716778   -0.855811386560   -0.002881829498
