14

 N   -0.700774006766    2.017242547294    0.001621589826
 C   -1.786220949669    2.840001517122    0.004763461047
 H   -1.594700109787    3.915058489621    0.002258862505
 C   -0.782637727448    0.597972085568    0.002639258710
 O    0.261105519870   -0.055269804493    0.000158417398
 N   -2.056475816129    0.055832453975    0.013252492840
 C   -3.114161928942    0.857184484850    0.010759448012
 N   -4.346155045398    0.253385455770   -0.034646375197
 H   -4.355089513719   -0.746308430741    0.134924233368
 H   -5.164732789601    0.779813775170    0.240253749600
 C   -3.045579930508    2.298561324045    0.007276014346
 H   -3.934103646193    2.929878915289   -0.002205939681
 H    0.243166116161    2.391890759736   -0.001684306402
CS    1.617372801255   -0.904109406183   -0.003065252705
