14

 N   -0.746955669613    2.046146012588    0.001731357604
 C   -1.832402612516    2.868904982416    0.004873228825
 H   -1.640881772634    3.943961954915    0.002368630283
 C   -0.828819390295    0.626875550862    0.002749026488
 O    0.214923857023   -0.026366339199    0.000268185176
 N   -2.102657478976    0.084735919269    0.013362260618
 C   -3.160343591789    0.886087950144    0.010869215790
 N   -4.392336708245    0.282288921064   -0.034536607419
 H   -4.401271176566   -0.717404965447    0.135034001146
 H   -5.210914452448    0.808717240464    0.240363517378
 C   -3.091761593355    2.327464789339    0.007385782124
 H   -3.980285309040    2.958782380583   -0.002096171903
 H    0.196984453314    2.420794225030   -0.001574538624
CS    1.655957843494   -0.928258415994   -0.003156964309
