14

 N   -0.931682321004    2.161759873764    0.002170428716
 C   -2.017129263907    2.984518843592    0.005312299937
 H   -1.825608424025    4.059575816091    0.002807701395
 C   -1.013546041686    0.742489412038    0.003188097600
 O    0.030197205632    0.089247521977    0.000707256288
 N   -2.287384130367    0.200349780445    0.013801331730
 C   -3.345070243180    1.001701811320    0.011308286902
 N   -4.577063359636    0.397902782240   -0.034097536307
 H   -4.585997827957   -0.601791104271    0.135473072258
 H   -5.395641103839    0.924331101640    0.240802588490
 C   -3.276488244746    2.443078650515    0.007824853236
 H   -4.165011960431    3.074396241759   -0.001657100791
 H    0.012257801923    2.536408086206   -0.001135467512
CS    1.810298012449   -1.024854455240   -0.003523810722
