14

 N   -1.254953960938    2.364084130823    0.002938803162
 C   -2.340400903841    3.186843100651    0.006080674383
 H   -2.148880063959    4.261900073150    0.003576075841
 C   -1.336817681620    0.944813669097    0.003956472046
 O   -0.293074434302    0.291571779036    0.001475630734
 N   -2.610655770301    0.402674037504    0.014569706176
 C   -3.668341883114    1.204026068379    0.012076661348
 N   -4.900334999570    0.600227039299   -0.033329161861
 H   -4.909269467891   -0.399466847212    0.136241446704
 H   -5.718912743773    1.126655358699    0.241570962936
 C   -3.599759884680    2.645402907574    0.008593227682
 H   -4.488283600365    3.276720498818   -0.000888726345
 H   -0.311013838011    2.738732343265   -0.000367093066
CS    2.080393308121   -1.193897523921   -0.004165791947
