14

 N   -1.301135623786    2.392987596117    0.003048570940
 C   -2.386582566689    3.215746565945    0.006190442161
 H   -2.195061726807    4.290803538444    0.003685843619
 C   -1.382999344468    0.973717134391    0.004066239824
 O   -0.339256097150    0.320475244330    0.001585398512
 N   -2.656837433149    0.431577502798    0.014679473954
 C   -3.714523545962    1.232929533673    0.012186429126
 N   -4.946516662418    0.629130504593   -0.033219394083
 H   -4.955451130739   -0.370563381918    0.136351214482
 H   -5.765094406621    1.155558823993    0.241680730714
 C   -3.645941547528    2.674306372868    0.008702995460
 H   -4.534465263213    3.305623964112   -0.000778958567
 H   -0.357195500859    2.767635808559   -0.000257325288
CS    2.118978350360   -1.218046533732   -0.004257503550
