14

 N   -1.439680612329    2.479697991999    0.003377874274
 C   -2.525127555232    3.302456961827    0.006519745495
 H   -2.333606715350    4.377513934326    0.004015146953
 C   -1.521544333011    1.060427530273    0.004395543158
 O   -0.477801085693    0.407185640212    0.001914701846
 N   -2.795382421692    0.518287898680    0.015008777288
 C   -3.853068534505    1.319639929555    0.012515732460
 N   -5.085061650961    0.715840900475   -0.032890090749
 H   -5.093996119282   -0.283852986036    0.136680517816
 H   -5.903639395164    1.242269219875    0.242010034048
 C   -3.784486536071    2.761016768750    0.009032298794
 H   -4.673010251756    3.392334359994   -0.000449655233
 H   -0.495740489402    2.854346204441    0.000071978046
CS    2.234733477076   -1.290493563167   -0.004532638361
