14

 N   -1.578225600872    2.566408387882    0.003707177608
 C   -2.663672543775    3.389167357710    0.006849048829
 H   -2.472151703893    4.464224330209    0.004344450287
 C   -1.660089321554    1.147137926156    0.004724846492
 O   -0.616346074236    0.493896036095    0.002244005180
 N   -2.933927410235    0.604998294563    0.015338080622
 C   -3.991613523048    1.406350325438    0.012845035794
 N   -5.223606639504    0.802551296358   -0.032560787415
 H   -5.232541107825   -0.197142590153    0.137009821150
 H   -6.042184383707    1.328979615758    0.242339337382
 C   -3.923031524614    2.847727164633    0.009361602128
 H   -4.811555240299    3.479044755877   -0.000120351899
 H   -0.634285477945    2.941056600324    0.000401281380
CS    2.350488603793   -1.362940592601   -0.004807773171
