14

 N   -1.624407263720    2.595311853176    0.003816945386
 C   -2.709854206623    3.418070823004    0.006958816607
 H   -2.518333366741    4.493127795503    0.004454218065
 C   -1.706270984402    1.176041391450    0.004834614270
 O   -0.662527737084    0.522799501389    0.002353772958
 N   -2.980109073083    0.633901759857    0.015447848400
 C   -4.037795185896    1.435253790732    0.012954803572
 N   -5.269788302352    0.831454761652   -0.032451019637
 H   -5.278722770673   -0.168239124859    0.137119588928
 H   -6.088366046555    1.357883081052    0.242449105160
 C   -3.969213187462    2.876630629927    0.009471369906
 H   -4.857736903147    3.507948221171   -0.000010584121
 H   -0.680467140793    2.969960065618    0.000511049158
CS    2.389073646031   -1.387089602413   -0.004899484774
