14

 N   -1.855315577959    2.739829179646    0.004365784276
 C   -2.940762520862    3.562588149474    0.007507655497
 H   -2.749241680980    4.637645121973    0.005003056955
 C   -1.937179298641    1.320558717920    0.005383453160
 O   -0.893436051323    0.667316827859    0.002902611848
 N   -3.211017387322    0.778419086327    0.015996687290
 C   -4.268703500135    1.579771117202    0.013503642462
 N   -5.500696616591    0.975972088122   -0.031902180747
 H   -5.509631084912   -0.023721798389    0.137668427818
 H   -6.319274360794    1.502400407522    0.242997944050
 C   -4.200121501701    3.021147956397    0.010020208796
 H   -5.088645217386    3.652465547641    0.000538254769
 H   -0.911375455032    3.114477392088    0.001059888048
CS    2.581998857225   -1.507834651470   -0.005358042792
