14

 N   -1.901497240807    2.768732644940    0.004475552054
 C   -2.986944183710    3.591491614768    0.007617423275
 H   -2.795423343828    4.666548587267    0.005112824733
 C   -1.983360961489    1.349462183214    0.005493220938
 O   -0.939617714171    0.696220293153    0.003012379626
 N   -3.257199050170    0.807322551621    0.016106455068
 C   -4.314885162983    1.608674582496    0.013613410240
 N   -5.546878279439    1.004875553416   -0.031792412969
 H   -5.555812747760    0.005181666905    0.137778195596
 H   -6.365456023642    1.531303872816    0.243107711828
 C   -4.246303164549    3.050051421691    0.010129976574
 H   -5.134826880234    3.681369012935    0.000648022547
 H   -0.957557117880    3.143380857382    0.001169655826
CS    2.620583899464   -1.531983661282   -0.005449754395
