14

 N   -1.947678903654    2.797636110234    0.004585319832
 C   -3.033125846557    3.620395080062    0.007727191053
 H   -2.841605006675    4.695452052561    0.005222592511
 C   -2.029542624336    1.378365648508    0.005602988716
 O   -0.985799377018    0.725123758447    0.003122147404
 N   -3.303380713017    0.836226016915    0.016216222846
 C   -4.361066825830    1.637578047790    0.013723178018
 N   -5.593059942286    1.033779018710   -0.031682645191
 H   -5.601994410607    0.034085132199    0.137887963374
 H   -6.411637686489    1.560207338110    0.243217479606
 C   -4.292484827396    3.078954886985    0.010239744352
 H   -5.181008543081    3.710272478229    0.000757790325
 H   -1.003738780727    3.172284322676    0.001279423604
CS    2.659168941703   -1.556132671093   -0.005541465999
