14

 N   -2.040042229350    2.855443040823    0.004804855388
 C   -3.125489172253    3.678202010651    0.007946726609
 H   -2.933968332371    4.753258983150    0.005442128067
 C   -2.121905950032    1.436172579097    0.005822524272
 O   -1.078162702714    0.782930689036    0.003341682960
 N   -3.395744038713    0.894032947504    0.016435758402
 C   -4.453430151526    1.695384978379    0.013942713574
 N   -5.685423267982    1.091585949299   -0.031463109635
 H   -5.694357736303    0.091892062788    0.138107498930
 H   -6.504001012185    1.618014268699    0.243437015162
 C   -4.384848153092    3.136761817574    0.010459279908
 H   -5.273371868777    3.768079408818    0.000977325881
 H   -1.096102106423    3.230091253265    0.001498959160
CS    2.736339026181   -1.604430690716   -0.005724889205
