14

 N   -2.363313869284    3.057767297881    0.005573229834
 C   -3.448760812187    3.880526267709    0.008715101055
 H   -3.257239972305    4.955583240208    0.006210502513
 C   -2.445177589966    1.638496836155    0.006590898718
 O   -1.401434342648    0.985254946094    0.004110057406
 N   -3.719015678647    1.096357204562    0.017204132848
 C   -4.776701791460    1.897709235437    0.014711088020
 N   -6.008694907916    1.293910206357   -0.030694735189
 H   -6.017629376237    0.294216319846    0.138875873376
 H   -6.827272652119    1.820338525757    0.244205389608
 C   -4.708119793026    3.339086074632    0.011227654354
 H   -5.596643508711    3.970403665876    0.001745700327
 H   -1.419373746357    3.432415510323    0.002267333606
CS    3.006434321852   -1.773473759397   -0.006366870430
