14

 N   -2.455677194979    3.115574228470    0.005792765390
 C   -3.541124137882    3.938333198298    0.008934636611
 H   -3.349603298000    5.013390170797    0.006430038069
 C   -2.537540915661    1.696303766744    0.006810434274
 O   -1.493797668343    1.043061876683    0.004329592962
 N   -3.811379004342    1.154164135151    0.017423668404
 C   -4.869065117155    1.955516166026    0.014930623576
 N   -6.101058233611    1.351717136946   -0.030475199633
 H   -6.109992701932    0.352023250435    0.139095408932
 H   -6.919635977814    1.878145456346    0.244424925164
 C   -4.800483118721    3.396893005221    0.011447189910
 H   -5.689006834406    4.028210596465    0.001965235883
 H   -1.511737072052    3.490222440912    0.002486869162
CS    3.083604406330   -1.821771779020   -0.006550293637
