14

 N   -2.501858857827    3.144477693764    0.005902533168
 C   -3.587305800730    3.967236663592    0.009044404389
 H   -3.395784960848    5.042293636091    0.006539805847
 C   -2.583722578509    1.725207232038    0.006920202052
 O   -1.539979331191    1.071965341977    0.004439360740
 N   -3.857560667190    1.183067600445    0.017533436182
 C   -4.915246780003    1.984419631320    0.015040391354
 N   -6.147239896459    1.380620602240   -0.030365431855
 H   -6.156174364780    0.380926715729    0.139205176710
 H   -6.965817640662    1.907048921640    0.244534692942
 C   -4.846664781569    3.425796470515    0.011556957688
 H   -5.735188497254    4.057114061759    0.002075003661
 H   -1.557918734900    3.519125906206    0.002596636940
CS    3.122189448569   -1.845920788831   -0.006642005240
