14

 N   -2.640403846370    3.231188089646    0.006231836502
 C   -3.725850789273    4.053947059474    0.009373707723
 H   -3.534329949391    5.129004031973    0.006869109181
 C   -2.722267567052    1.811917627920    0.007249505386
 O   -1.678524319734    1.158675737859    0.004768664074
 N   -3.996105655733    1.269777996327    0.017862739516
 C   -5.053791768546    2.071130027202    0.015369694688
 N   -6.285784885002    1.467330998122   -0.030036128521
 H   -6.294719353323    0.467637111611    0.139534480044
 H   -7.104362629205    1.993759317522    0.244863996276
 C   -4.985209770112    3.512506866397    0.011886261022
 H   -5.873733485797    4.143824457641    0.002404306995
 H   -1.696463723443    3.605836302088    0.002925940274
CS    3.237944575285   -1.918367818266   -0.006917140050
