14

 N   -2.871312160609    3.375705416117    0.006780675392
 C   -3.956759103512    4.198464385945    0.009922546613
 H   -3.765238263630    5.273521358444    0.007417948071
 C   -2.953175881291    1.956434954391    0.007798344276
 O   -1.909432633973    1.303193064330    0.005317502964
 N   -4.227013969972    1.414295322798    0.018411578406
 C   -5.284700082785    2.215647353673    0.015918533578
 N   -6.516693199241    1.611848324593   -0.029487289631
 H   -6.525627667562    0.612154438082    0.140083318934
 H   -7.335270943444    2.138276643993    0.245412835166
 C   -5.216118084351    3.657024192868    0.012435099912
 H   -6.104641800036    4.288341784112    0.002953145885
 H   -1.927372037682    3.750353628559    0.003474779164
CS    3.430869786479   -2.039112867323   -0.007375698068
