14

 N   -2.917493823457    3.404608881411    0.006890443169
 C   -4.002940766360    4.227367851239    0.010032314390
 H   -3.811419926478    5.302424823738    0.007527715848
 C   -2.999357544139    1.985338419685    0.007908112053
 O   -1.955614296821    1.332096529624    0.005427270741
 N   -4.273195632820    1.443198788092    0.018521346183
 C   -5.330881745633    2.244550818967    0.016028301355
 N   -6.562874862089    1.640751789887   -0.029377521854
 H   -6.571809330410    0.641057903376    0.140193086711
 H   -7.381452606292    2.167180109287    0.245522602943
 C   -5.262299747199    3.685927658162    0.012544867689
 H   -6.150823462884    4.317245249406    0.003062913662
 H   -1.973553700530    3.779257093853    0.003584546941
CS    3.469454828718   -2.063261877135   -0.007467409671
