14

 N   -3.009857149152    3.462415811999    0.007109978725
 C   -4.095304092055    4.285174781827    0.010251849946
 H   -3.903783252173    5.360231754326    0.007747251404
 C   -3.091720869834    2.043145350273    0.008127647609
 O   -2.047977622516    1.389903460212    0.005646806297
 N   -4.365558958515    1.501005718680    0.018740881739
 C   -5.423245071328    2.302357749555    0.016247836911
 N   -6.655238187784    1.698558720475   -0.029157986298
 H   -6.664172656105    0.698864833964    0.140412622267
 H   -7.473815931987    2.224987039875    0.245742138499
 C   -5.354663072894    3.743734588750    0.012764403245
 H   -6.243186788579    4.375052179994    0.003282449218
 H   -2.065917026225    3.837064024441    0.003804082497
CS    3.546624913196   -2.111559896758   -0.007650832878
