14

 N   -3.056038812000    3.491319277293    0.007219746503
 C   -4.141485754903    4.314078247121    0.010361617724
 H   -3.949964915021    5.389135219620    0.007857019182
 C   -3.137902532682    2.072048815567    0.008237415387
 O   -2.094159285364    1.418806925506    0.005756574075
 N   -4.411740621363    1.529909183974    0.018850649517
 C   -5.469426734176    2.331261214849    0.016357604689
 N   -6.701419850632    1.727462185769   -0.029048218520
 H   -6.710354318953    0.727768299258    0.140522390045
 H   -7.519997594835    2.253890505169    0.245851906277
 C   -5.400844735742    3.772638054044    0.012874171023
 H   -6.289368451427    4.403955645288    0.003392216996
 H   -2.112098689073    3.865967489735    0.003913850275
CS    3.585209955434   -2.135708906569   -0.007742544482
