14

 N   -3.286947126238    3.635836603763    0.007768585393
 C   -4.372394069141    4.458595573591    0.010910456614
 H   -4.180873229259    5.533652546090    0.008405858072
 C   -3.368810846920    2.216566142037    0.008786254277
 O   -2.325067599602    1.563324251976    0.006305412965
 N   -4.642648935601    1.674426510444    0.019399488407
 C   -5.700335048414    2.475778541319    0.016906443579
 N   -6.932328164870    1.871979512239   -0.028499379630
 H   -6.941262633191    0.872285625728    0.141071228935
 H   -7.750905909073    2.398407831639    0.246400745167
 C   -5.631753049980    3.917155380514    0.013423009913
 H   -6.520276765665    4.548472971758    0.003941055886
 H   -2.343007003311    4.010484816205    0.004462689165
CS    3.778135166628   -2.256453955627   -0.008201102499
