14

 N   -3.379310451934    3.693643534352    0.007988120949
 C   -4.464757394837    4.516402504180    0.011129992170
 H   -4.273236554955    5.591459476679    0.008625393628
 C   -3.461174172616    2.274373072626    0.009005789833
 O   -2.417430925298    1.621131182565    0.006524948521
 N   -4.735012261297    1.732233441033    0.019619023963
 C   -5.792698374110    2.533585471908    0.017125979135
 N   -7.024691490566    1.929786442828   -0.028279844074
 H   -7.033625958887    0.930092556317    0.141290764491
 H   -7.843269234769    2.456214762228    0.246620280723
 C   -5.724116375676    3.974962311103    0.013642545469
 H   -6.612640091361    4.606279902347    0.004160591442
 H   -2.435370329007    4.068291746794    0.004682224721
CS    3.855305251106   -2.304751975250   -0.008384525706
