14

 N   -3.425492114782    3.722546999646    0.008097888727
 C   -4.510939057685    4.545305969474    0.011239759948
 H   -4.319418217803    5.620362941973    0.008735161406
 C   -3.507355835464    2.303276537920    0.009115557611
 O   -2.463612588146    1.650034647859    0.006634716299
 N   -4.781193924145    1.761136906327    0.019728791741
 C   -5.838880036958    2.562488937202    0.017235746913
 N   -7.070873153414    1.958689908122   -0.028170076296
 H   -7.079807621735    0.958996021611    0.141400532269
 H   -7.889450897617    2.485118227522    0.246730048501
 C   -5.770298038524    4.003865776397    0.013752313247
 H   -6.658821754209    4.635183367641    0.004270359220
 H   -2.481551991855    4.097195212088    0.004791992499
CS    3.893890293345   -2.328900985061   -0.008476237309
