14

 N   -3.471673777629    3.751450464940    0.008207656505
 C   -4.557120720532    4.574209434768    0.011349527726
 H   -4.365599880650    5.649266407267    0.008844929184
 C   -3.553537498311    2.332180003214    0.009225325389
 O   -2.509794250993    1.678938113153    0.006744484077
 N   -4.827375586992    1.790040371621    0.019838559519
 C   -5.885061699805    2.591392402496    0.017345514691
 N   -7.117054816261    1.987593373416   -0.028060308518
 H   -7.125989284582    0.987899486905    0.141510300047
 H   -7.935632560464    2.514021692816    0.246839816279
 C   -5.816479701371    4.032769241691    0.013862081025
 H   -6.705003417056    4.664086832935    0.004380126998
 H   -2.527733654702    4.126098677382    0.004901760277
CS    3.932475335584   -2.353049994873   -0.008567948913
