14

 N   -3.564037103325    3.809257395528    0.008427192061
 C   -4.649484046228    4.632016365356    0.011569063282
 H   -4.457963206346    5.707073337855    0.009064464740
 C   -3.645900824007    2.389986933802    0.009444860945
 O   -2.602157576689    1.736745043741    0.006964019633
 N   -4.919738912688    1.847847302209    0.020058095075
 C   -5.977425025501    2.649199333084    0.017565050247
 N   -7.209418141957    2.045400304004   -0.027840772962
 H   -7.218352610278    1.045706417493    0.141729835603
 H   -8.027995886160    2.571828623404    0.247059351835
 C   -5.908843027067    4.090576172279    0.014081616581
 H   -6.797366742752    4.721893763523    0.004599662554
 H   -2.620096980398    4.183905607970    0.005121295833
CS    4.009645420061   -2.401348014496   -0.008751372120
