14

 N   -3.841127080411    3.982678187293    0.009085798729
 C   -4.926574023314    4.805437157121    0.012227669950
 H   -4.735053183432    5.880494129620    0.009723071408
 C   -3.922990801093    2.563407725567    0.010103467613
 O   -2.879247553775    1.910165835506    0.007622626301
 N   -5.196828889774    2.021268093974    0.020716701743
 C   -6.254515002587    2.822620124849    0.018223656915
 N   -7.486508119043    2.218821095769   -0.027182166294
 H   -7.495442587364    1.219127209258    0.142388442271
 H   -8.305085863246    2.745249415169    0.247717958503
 C   -6.185933004153    4.263996964044    0.014740223249
 H   -7.074456719838    4.895314555288    0.005258269222
 H   -2.897186957484    4.357326399735    0.005779902501
CS    4.241155673494   -2.546242073365   -0.009301641740
