14

 N   -3.979672068954    4.069388583175    0.009415102063
 C   -5.065119011857    4.892147553003    0.012556973284
 H   -4.873598171975    5.967204525502    0.010052374742
 C   -4.061535789636    2.650118121449    0.010432770947
 O   -3.017792542318    1.996876231388    0.007951929635
 N   -5.335373878317    2.107978489856    0.021046005077
 C   -6.393059991130    2.909330520731    0.018552960249
 N   -7.625053107586    2.305531491651   -0.026852862960
 H   -7.633987575907    1.305837605140    0.142717745605
 H   -8.443630851789    2.831959811051    0.248047261837
 C   -6.324477992696    4.350707359926    0.015069526583
 H   -7.213001708381    4.982024951170    0.005587572556
 H   -3.035731946027    4.444036795617    0.006109205835
CS    4.356910800211   -2.618689102799   -0.009576776551
