14

 N   -4.025853731802    4.098292048469    0.009524869841
 C   -5.111300674705    4.921051018297    0.012666741062
 H   -4.919779834823    5.996107990796    0.010162142520
 C   -4.107717452484    2.679021586743    0.010542538725
 O   -3.063974205166    2.025779696682    0.008061697413
 N   -5.381555541165    2.136881955150    0.021155772855
 C   -6.439241653978    2.938233986025    0.018662728027
 N   -7.671234770434    2.334434956945   -0.026743095182
 H   -7.680169238755    1.334741070434    0.142827513383
 H   -8.489812514637    2.860863276345    0.248157029615
 C   -6.370659655544    4.379610825220    0.015179294361
 H   -7.259183371229    5.010928416464    0.005697340334
 H   -3.081913608875    4.472940260911    0.006218973613
CS    4.395495842449   -2.642838112611   -0.009668488154
