14

 N   -4.118217057498    4.156098979057    0.009744405397
 C   -5.203664000401    4.978857948885    0.012886276618
 H   -5.012143160519    6.053914921384    0.010381678076
 C   -4.200080778180    2.736828517331    0.010762074281
 O   -3.156337530862    2.083586627270    0.008281232969
 N   -5.473918866861    2.194688885738    0.021375308411
 C   -6.531604979674    2.996040916613    0.018882263583
 N   -7.763598096130    2.392241887533   -0.026523559626
 H   -7.772532564451    1.392548001022    0.143047048939
 H   -8.582175840333    2.918670206933    0.248376565171
 C   -6.463022981240    4.437417755808    0.015398829917
 H   -7.351546696925    5.068735347052    0.005916875890
 H   -3.174276934571    4.530747191499    0.006438509169
CS    4.472665926927   -2.691136132234   -0.009851911361
