14

 N   -4.302943708889    4.271712840234    0.010183476509
 C   -5.388390651792    5.094471810062    0.013325347730
 H   -5.196869811910    6.169528782561    0.010820749188
 C   -4.384807429571    2.852442378508    0.011201145393
 O   -3.341064182253    2.199200488447    0.008720304081
 N   -5.658645518252    2.310302746915    0.021814379523
 C   -6.716331631065    3.111654777790    0.019321334695
 N   -7.948324747521    2.507855748710   -0.026084488514
 H   -7.957259215842    1.508161862199    0.143486120051
 H   -8.766902491724    3.034284068110    0.248815636283
 C   -6.647749632631    4.553031616985    0.015837901029
 H   -7.536273348316    5.184349208229    0.006355947002
 H   -3.359003585962    4.646361052676    0.006877580281
CS    4.627006095882   -2.787732171480   -0.010218757775
