14

 N   -4.349125371736    4.300616305528    0.010293244287
 C   -5.434572314639    5.123375275356    0.013435115508
 H   -5.243051474757    6.198432247855    0.010930516966
 C   -4.430989092418    2.881345843802    0.011310913171
 O   -3.387245845100    2.228103953741    0.008830071859
 N   -5.704827181099    2.339206212209    0.021924147301
 C   -6.762513293912    3.140558243084    0.019431102473
 N   -7.994506410368    2.536759214004   -0.025974720736
 H   -8.003440878689    1.537065327493    0.143595887829
 H   -8.813084154571    3.063187533404    0.248925404061
 C   -6.693931295478    4.581935082279    0.015947668807
 H   -7.582455011163    5.213252673523    0.006465714780
 H   -3.405185248809    4.675264517970    0.006987348059
CS    4.665591138121   -2.811881181291   -0.010310469378
