14

 N   -4.395307034584    4.329519770822    0.010403012065
 C   -5.480753977487    5.152278740650    0.013544883286
 H   -5.289233137605    6.227335713149    0.011040284744
 C   -4.477170755266    2.910249309096    0.011420680949
 O   -3.433427507948    2.257007419035    0.008939839637
 N   -5.751008843947    2.368109677503    0.022033915079
 C   -6.808694956760    3.169461708378    0.019540870251
 N   -8.040688073216    2.565662679298   -0.025864952958
 H   -8.049622541537    1.565968792787    0.143705655607
 H   -8.859265817419    3.092090998698    0.249035171839
 C   -6.740112958326    4.610838547573    0.016057436585
 H   -7.628636674011    5.242156138817    0.006575482558
 H   -3.451366911657    4.704167983264    0.007097115837
CS    4.704176180360   -2.836030191103   -0.010402180982
