14

 N   -4.533852023127    4.416230166704    0.010732315399
 C   -5.619298966030    5.238989136532    0.013874186620
 H   -5.427778126148    6.314046109031    0.011369588078
 C   -4.615715743809    2.996959704978    0.011749984283
 O   -3.571972496491    2.343717814917    0.009269142971
 N   -5.889553832490    2.454820073385    0.022363218413
 C   -6.947239945303    3.256172104260    0.019870173585
 N   -8.179233061759    2.652373075180   -0.025535649624
 H   -8.188167530080    1.652679188669    0.144034958941
 H   -8.997810805962    3.178801394580    0.249364475173
 C   -6.878657946869    4.697548943455    0.016386739919
 H   -7.767181662554    5.328866534699    0.006904785892
 H   -3.589911900200    4.790878379146    0.007426419171
CS    4.819931307076   -2.908477220537   -0.010677315792
