14

 N    2.419726934983    1.372236466176    0.417070200288
 C    1.334279992080    2.194995436004    0.420212071509
 H    1.525800831962    3.270052408503    0.417707472967
 C    2.337863214301   -0.047033995550    0.418087869172
 O    3.381606461619   -0.700275885611    0.415607027860
 N    1.064025125620   -0.589173627143    0.428701103302
 C    0.006339012807    0.212178403732    0.426208058474
 N   -1.225654103649   -0.391620625348    0.380802235265
 H   -1.234588571970   -1.391314511859    0.550372843830
 H   -2.044231847852    0.134807694052    0.655702360062
 C    0.074921011241    1.653555242927    0.422724624808
 H   -0.813602704444    2.284872834171    0.413242670781
 H    3.363667057910    1.746884678618    0.413764304060
RB   -1.549289448130   -0.571622507033   -0.548100066591
