14

 N    2.447774649096    1.387836249708    0.497573107792
 C    1.362327706193    2.210595219536    0.500714979013
 H    1.553848546075    3.285652192035    0.498210380471
 C    2.365910928414   -0.031434212018    0.498590776676
 O    3.409654175732   -0.684676102079    0.496109935364
 N    1.092072839733   -0.573573843611    0.509204010806
 C    0.034386726920    0.227778187264    0.506710965978
 N   -1.197606389536   -0.376020841816    0.461305142769
 H   -1.206540857857   -1.375714728327    0.630875751334
 H   -2.016184133739    0.150407477584    0.736205267566
 C    0.102968725354    1.669155026459    0.503227532312
 H   -0.785554990331    2.300472617703    0.493745578285
 H    3.391714772023    1.762484462150    0.494267211564
RB   -1.585968802913   -0.592023099837   -0.653377619458
