14

 N    2.461798506153    1.395636141474    0.537824561544
 C    1.376351563250    2.218395111302    0.540966432765
 H    1.567872403132    3.293452083801    0.538461834223
 C    2.379934785471   -0.023634320252    0.538842230428
 O    3.423678032789   -0.676876210313    0.536361389116
 N    1.106096696790   -0.565773951845    0.549455464558
 C    0.048410583977    0.235578079030    0.546962419730
 N   -1.183582532479   -0.368220950050    0.501556596521
 H   -1.192517000800   -1.367914836561    0.671127205086
 H   -2.002160276682    0.158207369350    0.776456721318
 C    0.116992582411    1.676954918225    0.543478986064
 H   -0.771531133274    2.308272509469    0.533997032037
 H    3.405738629080    1.770284353916    0.534518665316
RB   -1.604308480304   -0.602223396239   -0.706016395891
