14

 N    2.475822363210    1.403436033241    0.578076015296
 C    1.390375420307    2.226195003069    0.581217886517
 H    1.581896260189    3.301251975568    0.578713287975
 C    2.393958642528   -0.015834428485    0.579093684180
 O    3.437701889846   -0.669076318546    0.576612842868
 N    1.120120553847   -0.557974060078    0.589706918310
 C    0.062434441034    0.243377970797    0.587213873482
 N   -1.169558675422   -0.360421058283    0.541808050273
 H   -1.178493143743   -1.360114944794    0.711378658838
 H   -1.988136419625    0.166007261117    0.816708175070
 C    0.131016439468    1.684754809992    0.583730439816
 H   -0.757507276217    2.316072401236    0.574248485789
 H    3.419762486137    1.778084245683    0.574770119068
RB   -1.622648157695   -0.612423692642   -0.758655172324
