14

 N    2.489846220267    1.411235925007    0.618327469049
 C    1.404399277364    2.233994894835    0.621469340270
 H    1.595920117246    3.309051867334    0.618964741728
 C    2.407982499585   -0.008034536719    0.619345137933
 O    3.451725746903   -0.661276426780    0.616864296621
 N    1.134144410904   -0.550174168312    0.629958372063
 C    0.076458298091    0.251177862563    0.627465327235
 N   -1.155534818365   -0.352621166517    0.582059504026
 H   -1.164469286686   -1.352315053028    0.751630112591
 H   -1.974112562568    0.173807152883    0.856959628823
 C    0.145040296525    1.692554701758    0.623981893569
 H   -0.743483419160    2.323872293002    0.614499939542
 H    3.433786343194    1.785884137449    0.615021572821
RB   -1.640987835087   -0.622623989044   -0.811293948758
