14

 N    2.531917791437    1.434635600306    0.739081830305
 C    1.446470848534    2.257394570134    0.742223701526
 H    1.637991688416    3.332451542633    0.739719102984
 C    2.450054070755    0.015365138580    0.740099499189
 O    3.493797318073   -0.637876751481    0.737618657877
 N    1.176215982074   -0.526774493013    0.750712733319
 C    0.118529869261    0.274577537862    0.748219688491
 N   -1.113463247195   -0.329221491218    0.702813865282
 H   -1.122397715516   -1.328915377729    0.872384473847
 H   -1.932040991398    0.197206828182    0.977713990079
 C    0.187111867695    1.715954377057    0.744736254825
 H   -0.701411847990    2.347271968301    0.735254300798
 H    3.475857914364    1.809283812748    0.735775934077
RB   -1.696006867261   -0.653224878250   -0.969210278058
