14

 N    3.681874070090    2.074226725140    4.039701037975
 C    2.596427127187    2.896985694968    4.042842909196
 H    2.787947967069    3.972042667467    4.040338310654
 C    3.600010349408    0.654956263414    4.040718706859
 O    4.643753596726    0.001714373353    4.038237865547
 N    2.326172260727    0.112816631821    4.051331940989
 C    1.268486147914    0.914168662696    4.048838896161
 N    0.036493031458    0.310369633616    4.003433072952
 H    0.027558563137   -0.689324252895    4.173003681517
 H   -0.782084712745    0.836797953016    4.278333197749
 C    1.337068146348    2.355545501891    4.045355462495
 H    0.448544430663    2.986863093135    4.035873508468
 H    4.625814193017    2.448874937582    4.036395141747
RB   -3.199860413350   -1.489649183230   -5.285589945605
