14

 N    2.644108647891    1.497034734436    1.061093460321
 C    1.558661704988    2.319793704264    1.064235331542
 H    1.750182544870    3.394850676763    1.061730733000
 C    2.562244927209    0.077764272710    1.062111129205
 O    3.605988174527   -0.575477617351    1.059630287893
 N    1.288406838528   -0.464375358883    1.072724363335
 C    0.230720725715    0.336976671992    1.070231318507
 N   -1.001272390741   -0.266822357088    1.024825495298
 H   -1.010206859062   -1.266516243599    1.194396103863
 H   -1.819850134944    0.259605962312    1.299725620095
 C    0.299302724149    1.778353511187    1.066747884841
 H   -0.589220991536    2.409671102431    1.057265930814
 H    3.588048770818    1.871682946878    1.057787564093
RB   -1.842724286391   -0.734827249468   -1.390320489526
