14

 N    2.686180219061    1.520434409735    1.181847821578
 C    1.600733276158    2.343193379563    1.184989692799
 H    1.792254116040    3.418250352062    1.182485094257
 C    2.604316498379    0.101163948009    1.182865490462
 O    3.648059745697   -0.552077942052    1.180384649150
 N    1.330478409698   -0.440975683584    1.193478724592
 C    0.272792296885    0.360376347291    1.190985679764
 N   -0.959200819571   -0.243422681789    1.145579856555
 H   -0.968135287892   -1.243116568300    1.315150465120
 H   -1.777778563774    0.283005637611    1.420479981352
 C    0.341374295319    1.801753186486    1.187502246098
 H   -0.547149420366    2.433070777730    1.178020292071
 H    3.630120341988    1.895082622177    1.178541925350
RB   -1.897743318565   -0.765428138674   -1.548236818827
