14

 N    2.742275647288    1.551633976800    1.342853636586
 C    1.656828704385    2.374392946628    1.345995507807
 H    1.848349544267    3.449449919127    1.343490909265
 C    2.660411926606    0.132363515074    1.343871305470
 O    3.704155173924   -0.520878374987    1.341390464158
 N    1.386573837925   -0.409776116519    1.354484539600
 C    0.328887725112    0.391575914356    1.351991494772
 N   -0.903105391344   -0.212223114724    1.306585671563
 H   -0.912039859665   -1.211917001235    1.476156280128
 H   -1.721683135547    0.314205204676    1.581485796360
 C    0.397469723546    1.832952753551    1.348508061106
 H   -0.491053992139    2.464270344795    1.339026107079
 H    3.686215770215    1.926282189242    1.339547740358
RB   -1.971102028131   -0.806229324283   -1.758791924561
