14

 N    2.756299504345    1.559433868566    1.383105090338
 C    1.670852561442    2.382192838394    1.386246961559
 H    1.862373401324    3.457249810893    1.383742363017
 C    2.674435783663    0.140163406840    1.384122759222
 O    3.718179030981   -0.513078483221    1.381641917910
 N    1.400597694982   -0.401976224753    1.394735993352
 C    0.342911582169    0.399375806122    1.392242948524
 N   -0.889081534287   -0.204423222958    1.346837125315
 H   -0.898016002608   -1.204117109469    1.516407733880
 H   -1.707659278490    0.322005096442    1.621737250112
 C    0.411493580603    1.840752645317    1.388759514858
 H   -0.477030135082    2.472070236561    1.379277560831
 H    3.700239627272    1.934082081008    1.379799194110
RB   -1.989441705522   -0.816429620685   -1.811430700994
