14

 N    2.770323361401    1.567233760332    1.423356544090
 C    1.684876418498    2.389992730160    1.426498415311
 H    1.876397258380    3.465049702659    1.423993816769
 C    2.688459640719    0.147963298606    1.424374212974
 O    3.732202888037   -0.505278591455    1.421893371662
 N    1.414621552038   -0.394176332987    1.434987447104
 C    0.356935439225    0.407175697888    1.432494402276
 N   -0.875057677231   -0.196623331192    1.387088579067
 H   -0.883992145552   -1.196317217703    1.556659187632
 H   -1.693635421434    0.329804988208    1.661988703864
 C    0.425517437659    1.848552537083    1.429010968610
 H   -0.463006278026    2.479870128327    1.419529014583
 H    3.714263484328    1.941881972774    1.420050647862
RB   -2.007781382914   -0.826629917088   -1.864069477428
