14

 N    2.784347218458    1.575033652099    1.463607997842
 C    1.698900275555    2.397792621927    1.466749869063
 H    1.890421115437    3.472849594426    1.464245270521
 C    2.702483497776    0.155763190373    1.464625666726
 O    3.746226745094   -0.497478699688    1.462144825414
 N    1.428645409095   -0.386376441220    1.475238900856
 C    0.370959296282    0.414975589655    1.472745856028
 N   -0.861033820174   -0.188823439425    1.427340032819
 H   -0.869968288495   -1.188517325936    1.596910641384
 H   -1.679611564377    0.337604879975    1.702240157616
 C    0.439541294716    1.856352428850    1.469262422362
 H   -0.448982420969    2.487670020094    1.459780468335
 H    3.728287341385    1.949681864541    1.460302101614
RB   -2.026121060305   -0.836830213490   -1.916708253861
