14

 N    2.798371075515    1.582833543865    1.503859451594
 C    1.712924132612    2.405592513693    1.507001322815
 H    1.904444972494    3.480649486192    1.504496724273
 C    2.716507354833    0.163563082139    1.504877120478
 O    3.760250602151   -0.489678807922    1.502396279166
 N    1.442669266152   -0.378576549454    1.515490354608
 C    0.384983153339    0.422775481421    1.512997309780
 N   -0.847009963117   -0.181023547659    1.467591486571
 H   -0.855944431438   -1.180717434170    1.637162095136
 H   -1.665587707320    0.345404771741    1.742491611368
 C    0.453565151773    1.864152320616    1.509513876114
 H   -0.434958563912    2.495469911860    1.500031922087
 H    3.742311198442    1.957481756307    1.500553555366
RB   -2.044460737696   -0.847030509892   -1.969347030295
