14

 N    2.854466503742    1.614033110930    1.664865266602
 C    1.769019560839    2.436792080758    1.668007137823
 H    1.960540400721    3.511849053257    1.665502539281
 C    2.772602783060    0.194762649204    1.665882935486
 O    3.816346030378   -0.458479240857    1.663402094174
 N    1.498764694379   -0.347376982389    1.676496169616
 C    0.441078581566    0.453975048486    1.674003124788
 N   -0.790914534890   -0.149823980594    1.628597301579
 H   -0.799849003211   -1.149517867105    1.798167910144
 H   -1.609492279093    0.376604338806    1.903497426376
 C    0.509660580000    1.895351887681    1.670519691122
 H   -0.378863135685    2.526669478925    1.661037737095
 H    3.798406626669    1.988681323372    1.661559370374
RB   -2.117819447262   -0.887831695501   -2.179902136029
