14

 N    2.868490360799    1.621833002696    1.705116720355
 C    1.783043417896    2.444591972524    1.708258591576
 H    1.974564257778    3.519648945023    1.705753993034
 C    2.786626640117    0.202562540970    1.706134389239
 O    3.830369887435   -0.450679349091    1.703653547927
 N    1.512788551436   -0.339577090623    1.716747623369
 C    0.455102438623    0.461774940252    1.714254578541
 N   -0.776890677833   -0.142024088828    1.668848755332
 H   -0.785825146154   -1.141717975339    1.838419363897
 H   -1.595468422036    0.384404230572    1.943748880129
 C    0.523684437057    1.903151779447    1.710771144875
 H   -0.364839278628    2.534469370691    1.701289190848
 H    3.812430483726    1.996481215138    1.701810824127
RB   -2.136159124653   -0.898031991903   -2.232540912462
