14

 N    2.910561931969    1.645232677995    1.825871081611
 C    1.825114989066    2.467991647823    1.829012952832
 H    2.016635828948    3.543048620322    1.826508354290
 C    2.828698211287    0.225962216269    1.826888750495
 O    3.872441458605   -0.427279673792    1.824407909183
 N    1.554860122606   -0.316177415324    1.837501984625
 C    0.497174009793    0.485174615551    1.835008939797
 N   -0.734819106663   -0.118624413529    1.789603116588
 H   -0.743753574984   -1.118318300040    1.959173725153
 H   -1.553396850866    0.407803905871    2.064503241385
 C    0.565756008227    1.926551454746    1.831525506131
 H   -0.322767707458    2.557869045990    1.822043552104
 H    3.854502054896    2.019880890437    1.822565185383
RB   -2.191178156827   -0.928632881109   -2.390457241763
