14

 N    2.952633503139    1.668632353294    1.946625442867
 C    1.867186560236    2.491391323122    1.949767314088
 H    2.058707400118    3.566448295621    1.947262715546
 C    2.870769782457    0.249361891568    1.947643111751
 O    3.914513029775   -0.403879998493    1.945162270439
 N    1.596931693776   -0.292777740025    1.958256345881
 C    0.539245580963    0.508574290850    1.955763301053
 N   -0.692747535493   -0.095224738230    1.910357477844
 H   -0.701682003814   -1.094918624741    2.079928086409
 H   -1.511325279696    0.431203581170    2.185257602641
 C    0.607827579397    1.949951130045    1.952279867387
 H   -0.280696136288    2.581268721289    1.942797913360
 H    3.896573626066    2.043280565736    1.943319546639
RB   -2.246197189001   -0.959233770316   -2.548373571063
