14

 N    2.980681217253    1.684232136826    2.027128350371
 C    1.895234274350    2.506991106654    2.030270221592
 H    2.086755114232    3.582048079153    2.027765623050
 C    2.898817496571    0.264961675100    2.028146019255
 O    3.942560743889   -0.388280214961    2.025665177943
 N    1.624979407890   -0.277177956493    2.038759253385
 C    0.567293295077    0.524174074382    2.036266208557
 N   -0.664699821379   -0.079624954698    1.990860385348
 H   -0.673634289700   -1.079318841209    2.160430993913
 H   -1.483277565582    0.446803364702    2.265760510145
 C    0.635875293511    1.965550913577    2.032782774891
 H   -0.252648422174    2.596868504821    2.023300820864
 H    3.924621340180    2.058880349268    2.023822454143
RB   -2.282876543784   -0.979634363120   -2.653651123930
