14

 N    3.008728931366    1.699831920359    2.107631257875
 C    1.923281988463    2.522590890187    2.110773129096
 H    2.114802828345    3.597647862686    2.108268530554
 C    2.926865210684    0.280561458633    2.108648926759
 O    3.970608458002   -0.372680431428    2.106168085447
 N    1.653027122003   -0.261578172960    2.119262160889
 C    0.595341009190    0.539773857915    2.116769116061
 N   -0.636652107266   -0.064025171165    2.071363292852
 H   -0.645586575587   -1.063719057676    2.240933901417
 H   -1.455229851469    0.462403148235    2.346263417649
 C    0.663923007624    1.981150697110    2.113285682395
 H   -0.224600708061    2.612468288354    2.103803728368
 H    3.952669054293    2.074480132801    2.104325361647
RB   -2.319555898566   -1.000034955925   -2.758928676797
