14

 N    3.022752788423    1.707631812125    2.147882711627
 C    1.937305845520    2.530390781953    2.151024582848
 H    2.128826685402    3.605447754452    2.148519984306
 C    2.940889067741    0.288361350399    2.148900380511
 O    3.984632315059   -0.364880539662    2.146419539199
 N    1.667050979060   -0.253778281194    2.159513614641
 C    0.609364866247    0.547573749681    2.157020569813
 N   -0.622628250209   -0.056225279399    2.111614746604
 H   -0.631562718530   -1.055919165910    2.281185355169
 H   -1.441205994412    0.470203040001    2.386514871401
 C    0.677946864681    1.988950588876    2.153537136147
 H   -0.210576851004    2.620268180120    2.144055182120
 H    3.966692911350    2.082280024567    2.144576815399
RB   -2.337895575958   -1.010235252327   -2.811567453231
