14

 N    3.036776645480    1.715431703892    2.188134165379
 C    1.951329702577    2.538190673720    2.191276036600
 H    2.142850542459    3.613247646219    2.188771438058
 C    2.954912924798    0.296161242166    2.189151834263
 O    3.998656172116   -0.357080647895    2.186670992951
 N    1.681074836117   -0.245978389427    2.199765068393
 C    0.623388723304    0.555373641448    2.197272023565
 N   -0.608604393152   -0.048425387632    2.151866200356
 H   -0.617538861473   -1.048119274143    2.321436808921
 H   -1.427182137355    0.478002931768    2.426766325153
 C    0.691970721738    1.996750480643    2.193788589899
 H   -0.196552993947    2.628068071887    2.184306635872
 H    3.980716768407    2.090079916334    2.184828269151
RB   -2.356235253349   -1.020435548729   -2.864206229664
