14

 N    3.050800502536    1.723231595658    2.228385619132
 C    1.965353559633    2.545990565486    2.231527490353
 H    2.156874399515    3.621047537985    2.229022891811
 C    2.968936781854    0.303961133932    2.229403288016
 O    4.012680029172   -0.349280756129    2.226922446704
 N    1.695098693173   -0.238178497661    2.240016522146
 C    0.637412580360    0.563173533214    2.237523477318
 N   -0.594580536096   -0.040625495866    2.192117654109
 H   -0.603515004417   -1.040319382377    2.361688262674
 H   -1.413158280299    0.485802823534    2.467017778906
 C    0.705994578794    2.004550372409    2.234040043652
 H   -0.182529136891    2.635867963653    2.224558089625
 H    3.994740625463    2.097879808100    2.225079722904
RB   -2.374574930740   -1.030635845131   -2.916845006098
