14

 N    3.064824359593    1.731031487424    2.268637072884
 C    1.979377416690    2.553790457252    2.271778944105
 H    2.170898256572    3.628847429751    2.269274345563
 C    2.982960638911    0.311761025698    2.269654741768
 O    4.026703886229   -0.341480864363    2.267173900456
 N    1.709122550230   -0.230378605895    2.280267975898
 C    0.651436437417    0.570973424980    2.277774931070
 N   -0.580556679039   -0.032825604100    2.232369107861
 H   -0.589491147360   -1.032519490611    2.401939716426
 H   -1.399134423242    0.493602715300    2.507269232658
 C    0.720018435851    2.012350264175    2.274291497404
 H   -0.168505279834    2.643667855419    2.264809543377
 H    4.008764482520    2.105679699866    2.265331176656
RB   -2.392914608132   -1.040836141533   -2.969483782531
