14

 N    3.092872073707    1.746631270957    2.349139980388
 C    2.007425130804    2.569390240785    2.352281851609
 H    2.198945970686    3.644447213284    2.349777253067
 C    3.011008353025    0.327360809231    2.350157649272
 O    4.054751600343   -0.325881080830    2.347676807960
 N    1.737170264344   -0.214778822362    2.360770883402
 C    0.679484151531    0.586573208513    2.358277838574
 N   -0.552508964925   -0.017225820567    2.312872015365
 H   -0.561443433246   -1.016919707078    2.482442623930
 H   -1.371086709128    0.509202498833    2.587772140162
 C    0.748066149965    2.027950047708    2.354794404908
 H   -0.140457565720    2.659267638952    2.345312450881
 H    4.036812196634    2.121279483399    2.345834084160
RB   -2.429593962914   -1.061236734338   -3.074761335398
