14

 N    3.148967501934    1.777830838022    2.510145795396
 C    2.063520559031    2.600589807850    2.513287666617
 H    2.255041398913    3.675646780349    2.510783068075
 C    3.067103781252    0.358560376296    2.511163464280
 O    4.110847028570   -0.294681513765    2.508682622968
 N    1.793265692571   -0.183579255297    2.521776698410
 C    0.735579579758    0.617772775578    2.519283653582
 N   -0.496413536698    0.013973746498    2.473877830373
 H   -0.505348005019   -0.985720140013    2.643448438938
 H   -1.314991280901    0.540402065898    2.748777955170
 C    0.804161578192    2.059149614773    2.515800219916
 H   -0.084362137493    2.690467206017    2.506318265889
 H    4.092907624861    2.152479050464    2.506839899168
RB   -2.502952672480   -1.102037919947   -3.285316441132
