14

 N    3.247134501331    1.832430080386    2.791905971661
 C    2.161687558428    2.655189050214    2.795047842882
 H    2.353208398310    3.730246022713    2.792543244340
 C    3.165270780649    0.413159618660    2.792923640545
 O    4.209014027967   -0.240082271401    2.790442799233
 N    1.891432691968   -0.128980012933    2.803536874675
 C    0.833746579155    0.672372017942    2.801043829847
 N   -0.398246537301    0.068572988862    2.755638006638
 H   -0.407181005622   -0.931120897649    2.925208615203
 H   -1.216824281504    0.595001308262    3.030538131435
 C    0.902328577589    2.113748857137    2.797560396181
 H    0.013804861904    2.745066448381    2.788078442154
 H    4.191074624258    2.207078292828    2.788600075433
RB   -2.631330414219   -1.173439994762   -3.653787876167
