14

 N    3.317253786615    1.871429539217    2.993163240421
 C    2.231806843712    2.694188509045    2.996305111642
 H    2.423327683594    3.769245481544    2.993800513100
 C    3.235390065933    0.452159077491    2.994180909305
 O    4.279133313251   -0.201082812570    2.991700067993
 N    1.961551977252   -0.089980554102    3.004794143435
 C    0.903865864439    0.711371476773    3.002301098607
 N   -0.328127252017    0.107572447693    2.956895275398
 H   -0.337061720338   -0.892121438818    3.126465883963
 H   -1.146704996220    0.634000767093    3.231795400195
 C    0.972447862873    2.152748315968    2.998817664941
 H    0.083924147188    2.784065907212    2.989335710914
 H    4.261193909542    2.246077751659    2.989857344193
RB   -2.723028801176   -1.224441476773   -3.916981758334
