14

 N    3.373349214842    1.902629106282    3.154169055429
 C    2.287902271939    2.725388076110    3.157310926650
 H    2.479423111821    3.800445048609    3.154806328108
 C    3.291485494160    0.483358644556    3.155186724313
 O    4.335228741478   -0.169883245505    3.152705883001
 N    2.017647405479   -0.058780987037    3.165799958443
 C    0.959961292666    0.742571043838    3.163306913615
 N   -0.272031823790    0.138772014758    3.117901090406
 H   -0.280966292111   -0.860921871753    3.287471698971
 H   -1.090609567993    0.665200334158    3.392801215203
 C    1.028543291100    2.183947883033    3.159823479949
 H    0.140019575415    2.815265474277    3.150341525922
 H    4.317289337769    2.277277318724    3.150863159201
RB   -2.796387510741   -1.265242662382   -4.127536864068
