14

 N    3.387373071898    1.910428998048    3.194420509181
 C    2.301926128995    2.733187967876    3.197562380402
 H    2.493446968877    3.808244940375    3.195057781860
 C    3.305509351216    0.491158536322    3.195438178065
 O    4.349252598534   -0.162083353739    3.192957336753
 N    2.031671262535   -0.050981095271    3.206051412195
 C    0.973985149722    0.750370935604    3.203558367367
 N   -0.258007966734    0.146571906524    3.158152544158
 H   -0.266942435055   -0.853121979987    3.327723152723
 H   -1.076585710937    0.673000225924    3.433052668955
 C    1.042567148156    2.191747774799    3.200074933701
 H    0.154043432471    2.823065366043    3.190592979674
 H    4.331313194825    2.285077210490    3.191114612953
RB   -2.814727188132   -1.275442958784   -4.180175640502
