14

 N    3.415420786012    1.926028781581    3.274923416685
 C    2.329973843109    2.748787751409    3.278065287906
 H    2.521494682991    3.823844723908    3.275560689364
 C    3.333557065330    0.506758319855    3.275941085569
 O    4.377300312648   -0.146483570206    3.273460244257
 N    2.059718976649   -0.035381311738    3.286554319699
 C    1.002032863836    0.765970719137    3.284061274871
 N   -0.229960252620    0.162171690057    3.238655451662
 H   -0.238894720941   -0.837522196454    3.408226060227
 H   -1.048537996823    0.688600009457    3.513555576459
 C    1.070614862270    2.207347558332    3.280577841205
 H    0.182091146585    2.838665149576    3.271095887178
 H    4.359360908939    2.300676994023    3.271617520457
RB   -2.851406542915   -1.295843551588   -4.285453193369
