14

 N    3.499563928352    1.972828132178    3.516432139198
 C    2.414116985449    2.795587102006    3.519574010419
 H    2.605637825331    3.870644074505    3.517069411877
 C    3.417700207670    0.553557670452    3.517449808082
 O    4.461443454988   -0.099684219609    3.514968966770
 N    2.143862118989    0.011418038859    3.528063042212
 C    1.086176006176    0.812770069734    3.525569997384
 N   -0.145817110280    0.208971040654    3.480164174175
 H   -0.154751578601   -0.790722845857    3.649734782740
 H   -0.964394854483    0.735399360054    3.755064298972
 C    1.154758004610    2.254146908929    3.522086563718
 H    0.266234288925    2.885464500173    3.512604609691
 H    4.443504051279    2.347476344620    3.513126242970
RB   -2.961444607263   -1.357045330001   -4.601285851970
