14

 N    3.527611642466    1.988427915711    3.596935046702
 C    2.442164699563    2.811186885539    3.600076917923
 H    2.633685539445    3.886243858038    3.597572319381
 C    3.445747921784    0.569157453985    3.597952715586
 O    4.489491169102   -0.084084436076    3.595471874274
 N    2.171909833103    0.027017822392    3.608565949716
 C    1.114223720290    0.828369853267    3.606072904888
 N   -0.117769396166    0.224570824187    3.560667081679
 H   -0.126703864487   -0.775123062324    3.730237690244
 H   -0.936347140369    0.750999143587    3.835567206476
 C    1.182805718724    2.269746692462    3.602589471222
 H    0.294282003039    2.901064283706    3.593107517195
 H    4.471551765393    2.363076128153    3.593629150474
RB   -2.998123962046   -1.377445922806   -4.706563404836
