14

 N    3.555659356579    2.004027699243    3.677437954206
 C    2.470212413676    2.826786669071    3.680579825427
 H    2.661733253558    3.901843641570    3.678075226885
 C    3.473795635897    0.584757237517    3.678455623090
 O    4.517538883215   -0.068484652544    3.675974781778
 N    2.199957547216    0.042617605924    3.689068857220
 C    1.142271434403    0.843969636799    3.686575812392
 N   -0.089721682053    0.240170607719    3.641169989183
 H   -0.098656150374   -0.759523278792    3.810740597748
 H   -0.908299426256    0.766598927119    3.916070113980
 C    1.210853432837    2.285346475994    3.683092378726
 H    0.322329717152    2.916664067238    3.673610424699
 H    4.499599479506    2.378675911685    3.674132057978
RB   -3.034803316828   -1.397846515610   -4.811840957703
