14

 N    3.667850213033    2.066426833374    3.999449584223
 C    2.582403270130    2.889185803202    4.002591455444
 H    2.773924110012    3.964242775701    4.000086856902
 C    3.585986492351    0.647156371648    4.000467253107
 O    4.629729739669   -0.006085518413    3.997986411795
 N    2.312148403670    0.105016740055    4.011080487237
 C    1.254462290857    0.906368770930    4.008587442409
 N    0.022469174401    0.302569741850    3.963181619200
 H    0.013534706080   -0.697124144661    4.132752227765
 H   -0.796108569802    0.828998061250    4.238081743997
 C    1.323044289291    2.347745610125    4.005104008743
 H    0.434520573606    2.979063201369    3.995622054716
 H    4.611790335960    2.441075045816    3.996143687995
RB   -3.181520735959   -1.479448886828   -5.232951169171
