14

 C   -0.015629947185   -2.671104379254   -0.273631583049
 H   -0.007907947185   -3.764279379254   -0.273631583049
 C    1.194846052815   -1.951265379254   -0.273631583049
 H    2.149865052815   -2.484964379254   -0.273631583049
 C   -1.235453947185   -1.971098379254   -0.273631583049
 H   -2.183585947185   -2.516910379254   -0.273631583049
 C    1.192438052815   -0.546120379254   -0.273631583049
 H    2.123792052815    0.026418620746   -0.273631583049
 C   -1.249304947185   -0.563617379254   -0.273631583049
 H   -2.201303947185   -0.020896379254   -0.273631583049
 C   -0.033027947185    0.144164620746   -0.273631583049
 O    0.027519052815    1.524625620746   -0.273631583049
 H   -0.875611947185    1.873052620746   -0.273631583049
 K    0.059439005189    1.880306574697    0.660430607406
