14

 C   -0.023110654305   -2.754461177963   -0.492536849487
 H   -0.015388654305   -3.847636177963   -0.492536849487
 C    1.187365345695   -2.034622177963   -0.492536849487
 H    2.142384345695   -2.568321177963   -0.492536849487
 C   -1.242934654305   -2.054455177963   -0.492536849487
 H   -2.191066654305   -2.600267177963   -0.492536849487
 C    1.184957345695   -0.629477177963   -0.492536849487
 H    2.116311345695   -0.056938177963   -0.492536849487
 C   -1.256785654305   -0.646974177963   -0.492536849487
 H   -2.208784654305   -0.104253177963   -0.492536849487
 C   -0.040508654305    0.060807822037   -0.492536849487
 O    0.020038345695    1.441268822037   -0.492536849487
 H   -0.883092654305    1.789695822037   -0.492536849487
 K    0.077494259968    2.081494539149    1.188775093331
