14

 C   -0.099787902290   -3.608868364735   -2.736315830486
 H   -0.092065902290   -4.702043364735   -2.736315830486
 C    1.110688097710   -2.889029364735   -2.736315830486
 H    2.065707097710   -3.422728364735   -2.736315830486
 C   -1.319611902290   -2.908862364735   -2.736315830486
 H   -2.267743902290   -3.454674364735   -2.736315830486
 C    1.108280097710   -1.483884364735   -2.736315830486
 H    2.039634097710   -0.911345364735   -2.736315830486
 C   -1.333462902290   -1.501381364735   -2.736315830486
 H   -2.285461902290   -0.958660364735   -2.736315830486
 C   -0.117185902290   -0.793599364735   -2.736315830486
 O   -0.056638902290    0.586861635265   -2.736315830486
 H   -0.959769902290    0.935288635265   -2.736315830486
 K    0.262560621448    4.143671174774    6.604306074061
