14

 C   -0.025915919475   -2.785719977479   -0.574626324402
 H   -0.018193919475   -3.878894977479   -0.574626324402
 C    1.184560080525   -2.065880977479   -0.574626324402
 H    2.139579080525   -2.599579977479   -0.574626324402
 C   -1.245739919475   -2.085713977479   -0.574626324402
 H   -2.193871919475   -2.631525977479   -0.574626324402
 C    1.182152080525   -0.660735977479   -0.574626324402
 H    2.113506080525   -0.088196977479   -0.574626324402
 C   -1.259590919475   -0.678232977479   -0.574626324402
 H   -2.211589919475   -0.135511977479   -0.574626324402
 C   -0.043313919475    0.029549022521   -0.574626324402
 O    0.017233080525    1.410010022521   -0.574626324402
 H   -0.885897919475    1.758437022521   -0.574626324402
 K    0.084264980510    2.156940025818    1.386904275553
