14

 C   -0.027786096256   -2.806559177157   -0.629352641012
 H   -0.020064096256   -3.899734177157   -0.629352641012
 C    1.182689903744   -2.086720177157   -0.629352641012
 H    2.137708903744   -2.620419177157   -0.629352641012
 C   -1.247610096256   -2.106553177157   -0.629352641012
 H   -2.195742096256   -2.652365177157   -0.629352641012
 C    1.180281903744   -0.681575177157   -0.629352641012
 H    2.111635903744   -0.109036177157   -0.629352641012
 C   -1.261461096256   -0.699072177157   -0.629352641012
 H   -2.213460096256   -0.156351177157   -0.629352641012
 C   -0.045184096256    0.008709822843   -0.629352641012
 O    0.015362903744    1.389170822843   -0.629352641012
 H   -0.887768096256    1.737597822843   -0.629352641012
 K    0.088778794204    2.207237016931    1.518990397034
