14

 C   -0.030591361426   -2.837817976673   -0.711442115926
 H   -0.022869361426   -3.930992976673   -0.711442115926
 C    1.179884638574   -2.117978976673   -0.711442115926
 H    2.134903638574   -2.651677976673   -0.711442115926
 C   -1.250415361426   -2.137811976673   -0.711442115926
 H   -2.198547361426   -2.683623976673   -0.711442115926
 C    1.177476638574   -0.712833976673   -0.711442115926
 H    2.108830638574   -0.140294976673   -0.711442115926
 C   -1.264266361426   -0.730330976673   -0.711442115926
 H   -2.216265361426   -0.187609976673   -0.711442115926
 C   -0.047989361426   -0.022548976673   -0.711442115926
 O    0.012557638574    1.357912023327   -0.711442115926
 H   -0.890573361426    1.706339023327   -0.711442115926
 K    0.095549514746    2.282682503600    1.717119579256
