14

 C   -0.035266803376   -2.889915975866   -0.848257907451
 H   -0.027544803376   -3.983090975866   -0.848257907451
 C    1.175209196624   -2.170076975866   -0.848257907451
 H    2.130228196624   -2.703775975866   -0.848257907451
 C   -1.255090803376   -2.189909975866   -0.848257907451
 H   -2.203222803376   -2.735721975866   -0.848257907451
 C    1.172801196624   -0.764931975866   -0.848257907451
 H    2.104155196624   -0.192392975866   -0.848257907451
 C   -1.268941803376   -0.782428975866   -0.848257907451
 H   -2.220940803376   -0.239707975866   -0.848257907451
 C   -0.052664803376   -0.074646975866   -0.848257907451
 O    0.007882196624    1.305814024134   -0.848257907451
 H   -0.895248803376    1.654241024134   -0.848257907451
 K    0.106834048983    2.408424981382    2.047334882959
