14

 C   -0.038072068546   -2.921174775382   -0.930347382365
 H   -0.030350068546   -4.014349775382   -0.930347382365
 C    1.172403931454   -2.201335775382   -0.930347382365
 H    2.127422931454   -2.735034775382   -0.930347382365
 C   -1.257896068546   -2.221168775382   -0.930347382365
 H   -2.206028068546   -2.766980775382   -0.930347382365
 C    1.169995931454   -0.796190775382   -0.930347382365
 H    2.101349931454   -0.223651775382   -0.930347382365
 C   -1.271747068546   -0.813687775382   -0.930347382365
 H   -2.223746068546   -0.270966775382   -0.930347382365
 C   -0.055470068546   -0.105905775382   -0.930347382365
 O    0.005076931454    1.274555224618   -0.930347382365
 H   -0.898054068546    1.622982224618   -0.930347382365
 K    0.113604769525    2.483870468051    2.245464065181
