14

 C   -0.041812422107   -2.962853174737   -1.039800015585
 H   -0.034090422107   -4.056028174737   -1.039800015585
 C    1.168663577893   -2.243014174737   -1.039800015585
 H    2.123682577893   -2.776713174737   -1.039800015585
 C   -1.261636422107   -2.262847174737   -1.039800015585
 H   -2.209768422107   -2.808659174737   -1.039800015585
 C    1.166255577893   -0.837869174737   -1.039800015585
 H    2.097609577893   -0.265330174737   -1.039800015585
 C   -1.275487422107   -0.855366174737   -1.039800015585
 H   -2.227486422107   -0.312645174737   -1.039800015585
 C   -0.059210422107   -0.147584174737   -1.039800015585
 O    0.001336577893    1.232876825263   -1.039800015585
 H   -0.901794422107    1.581303825263   -1.039800015585
 K    0.122632396914    2.584464450277    2.509636308143
