14

 C   -0.042747510497   -2.973272774575   -1.067163173889
 H   -0.035025510497   -4.066447774575   -1.067163173889
 C    1.167728489503   -2.253433774575   -1.067163173889
 H    2.122747489503   -2.787132774575   -1.067163173889
 C   -1.262571510497   -2.273266774575   -1.067163173889
 H   -2.210703510497   -2.819078774575   -1.067163173889
 C    1.165320489503   -0.848288774575   -1.067163173889
 H    2.096674489503   -0.275749774575   -1.067163173889
 C   -1.276422510497   -0.865785774575   -1.067163173889
 H   -2.228421510497   -0.323064774575   -1.067163173889
 C   -0.060145510497   -0.158003774575   -1.067163173889
 O    0.000401489503    1.222457225425   -1.067163173889
 H   -0.902729510497    1.570884225425   -1.067163173889
 K    0.124889303762    2.609612945833    2.575679368884
