14

 C   -0.052098394397   -3.077468772962   -1.340794756938
 H   -0.044376394397   -4.170643772962   -1.340794756938
 C    1.158377605603   -2.357629772962   -1.340794756938
 H    2.113396605603   -2.891328772962   -1.340794756938
 C   -1.271922394397   -2.377462772962   -1.340794756938
 H   -2.220054394397   -2.923274772962   -1.340794756938
 C    1.155969605603   -0.952484772962   -1.340794756938
 H    2.087323605603   -0.379945772962   -1.340794756938
 C   -1.285773394397   -0.969981772962   -1.340794756938
 H   -2.237772394397   -0.427260772962   -1.340794756938
 C   -0.069496394397   -0.262199772962   -1.340794756938
 O   -0.008949394397    1.118261227038   -1.340794756938
 H   -0.912080394397    1.466688227038   -1.340794756938
 K    0.147458372235    2.861097901397    3.236109976290
