14

 C   -0.053033482787   -3.087888372801   -1.368157915243
 H   -0.045311482787   -4.181063372801   -1.368157915243
 C    1.157442517213   -2.368049372801   -1.368157915243
 H    2.112461517213   -2.901748372801   -1.368157915243
 C   -1.272857482787   -2.387882372801   -1.368157915243
 H   -2.220989482787   -2.933694372801   -1.368157915243
 C    1.155034517213   -0.962904372801   -1.368157915243
 H    2.086388517213   -0.390365372801   -1.368157915243
 C   -1.286708482787   -0.980401372801   -1.368157915243
 H   -2.238707482787   -0.437680372801   -1.368157915243
 C   -0.070431482787   -0.272619372801   -1.368157915243
 O   -0.009884482787    1.107841627199   -1.368157915243
 H   -0.913015482787    1.456268627199   -1.368157915243
 K    0.149715279082    2.886246396954    3.302153037031
