14

 C   -0.053968571177   -3.098307972640   -1.395521073548
 H   -0.046246571177   -4.191482972640   -1.395521073548
 C    1.156507428823   -2.378468972640   -1.395521073548
 H    2.111526428823   -2.912167972640   -1.395521073548
 C   -1.273792571177   -2.398301972640   -1.395521073548
 H   -2.221924571177   -2.944113972640   -1.395521073548
 C    1.154099428823   -0.973323972640   -1.395521073548
 H    2.085453428823   -0.400784972640   -1.395521073548
 C   -1.287643571177   -0.990820972640   -1.395521073548
 H   -2.239642571177   -0.448099972640   -1.395521073548
 C   -0.071366571177   -0.283038972640   -1.395521073548
 O   -0.010819571177    1.097422027360   -1.395521073548
 H   -0.913950571177    1.445849027360   -1.395521073548
 K    0.151972185929    2.911394892510    3.368196097771
