14

 C   -0.057708924738   -3.139986371994   -1.504973706767
 H   -0.049986924738   -4.233161371994   -1.504973706767
 C    1.152767075262   -2.420147371994   -1.504973706767
 H    2.107786075262   -2.953846371994   -1.504973706767
 C   -1.277532924738   -2.439980371994   -1.504973706767
 H   -2.225664924738   -2.985792371994   -1.504973706767
 C    1.150359075262   -1.015002371994   -1.504973706767
 H    2.081713075262   -0.442463371994   -1.504973706767
 C   -1.291383924738   -1.032499371994   -1.504973706767
 H   -2.243382924738   -0.489778371994   -1.504973706767
 C   -0.075106924738   -0.324717371994   -1.504973706767
 O   -0.014559924738    1.055743628006   -1.504973706767
 H   -0.917690924738    1.404170628006   -1.504973706767
 K    0.160999813319    3.011988874736    3.632368340734
