14

 C   -0.060514189908   -3.171245171510   -1.587063181682
 H   -0.052792189908   -4.264420171511   -1.587063181682
 C    1.149961810092   -2.451406171510   -1.587063181682
 H    2.104980810092   -2.985105171510   -1.587063181682
 C   -1.280338189908   -2.471239171511   -1.587063181682
 H   -2.228470189908   -3.017051171510   -1.587063181682
 C    1.147553810092   -1.046261171510   -1.587063181682
 H    2.078907810092   -0.473722171510   -1.587063181682
 C   -1.294189189908   -1.063758171510   -1.587063181682
 H   -2.246188189908   -0.521037171510   -1.587063181682
 C   -0.077912189908   -0.355976171510   -1.587063181682
 O   -0.017365189908    1.024484828489   -1.587063181682
 H   -0.920496189908    1.372911828490   -1.587063181682
 K    0.167770533861    3.087434361405    3.830497522955
