14

 C   -0.067059808638   -3.244182370381   -1.778605289816
 H   -0.059337808638   -4.337357370381   -1.778605289816
 C    1.143416191362   -2.524343370381   -1.778605289816
 H    2.098435191362   -3.058042370381   -1.778605289816
 C   -1.286883808638   -2.544176370381   -1.778605289816
 H   -2.235015808638   -3.089988370381   -1.778605289816
 C    1.141008191362   -1.119198370381   -1.778605289816
 H    2.072362191362   -0.546659370381   -1.778605289816
 C   -1.300734808638   -1.136695370381   -1.778605289816
 H   -2.252733808638   -0.593974370381   -1.778605289816
 C   -0.084457808638   -0.428913370381   -1.778605289816
 O   -0.023910808638    0.951547629619   -1.778605289816
 H   -0.927041808638    1.299974629619   -1.778605289816
 K    0.183568881792    3.263473830300    4.292798948140
