14

 C   -0.068929985418   -3.265021570059   -1.833331606425
 H   -0.061207985418   -4.358196570059   -1.833331606425
 C    1.141546014582   -2.545182570059   -1.833331606425
 H    2.096565014582   -3.078881570059   -1.833331606425
 C   -1.288753985418   -2.565015570059   -1.833331606425
 H   -2.236885985418   -3.110827570059   -1.833331606425
 C    1.139138014582   -1.140037570059   -1.833331606425
 H    2.070492014582   -0.567498570059   -1.833331606425
 C   -1.302604985418   -1.157534570059   -1.833331606425
 H   -2.254603985418   -0.614813570059   -1.833331606425
 C   -0.086327985418   -0.449752570059   -1.833331606425
 O   -0.025780985418    0.930708429941   -1.833331606425
 H   -0.928911985418    1.279135429941   -1.833331606425
 K    0.188082695487    3.313770821413    4.424885069621
