14

 C   -0.069865073808   -3.275441169897   -1.860694764730
 H   -0.062143073808   -4.368616169897   -1.860694764730
 C    1.140610926192   -2.555602169897   -1.860694764730
 H    2.095629926192   -3.089301169897   -1.860694764730
 C   -1.289689073808   -2.575435169897   -1.860694764730
 H   -2.237821073808   -3.121247169897   -1.860694764730
 C    1.138202926192   -1.150457169897   -1.860694764730
 H    2.069556926192   -0.577918169897   -1.860694764730
 C   -1.303540073808   -1.167954169897   -1.860694764730
 H   -2.255539073808   -0.625233169897   -1.860694764730
 C   -0.087263073808   -0.460172169897   -1.860694764730
 O   -0.026716073808    0.920288830103   -1.860694764730
 H   -0.929847073808    1.268715830103   -1.860694764730
 K    0.190339602334    3.338919316969    4.490928130362
