14

 C   -0.072670338979   -3.306699969413   -1.942784239645
 H   -0.064948338979   -4.399874969413   -1.942784239645
 C    1.137805661021   -2.586860969413   -1.942784239645
 H    2.092824661021   -3.120559969413   -1.942784239645
 C   -1.292494338979   -2.606693969413   -1.942784239645
 H   -2.240626338979   -3.152505969413   -1.942784239645
 C    1.135397661021   -1.181715969413   -1.942784239645
 H    2.066751661021   -0.609176969413   -1.942784239645
 C   -1.306345338979   -1.199212969413   -1.942784239645
 H   -2.258344338979   -0.656491969413   -1.942784239645
 C   -0.090068338979   -0.491430969413   -1.942784239645
 O   -0.029521338979    0.889030030587   -1.942784239645
 H   -0.932652338979    1.237457030587   -1.942784239645
 K    0.197110322876    3.414364803639    4.689057312583
