14

 C   -0.079215957709   -3.379637168284   -2.134326347779
 H   -0.071493957709   -4.472812168284   -2.134326347779
 C    1.131260042291   -2.659798168284   -2.134326347779
 H    2.086279042291   -3.193497168284   -2.134326347779
 C   -1.299039957709   -2.679631168284   -2.134326347779
 H   -2.247171957709   -3.225443168284   -2.134326347779
 C    1.128852042291   -1.254653168284   -2.134326347779
 H    2.060206042291   -0.682114168284   -2.134326347779
 C   -1.312890957709   -1.272150168284   -2.134326347779
 H   -2.264889957709   -0.729429168284   -2.134326347779
 C   -0.096613957709   -0.564368168284   -2.134326347779
 O   -0.036066957709    0.816092831716   -2.134326347779
 H   -0.939197957709    1.164519831716   -2.134326347779
 K    0.212908670807    3.590404272533    5.151358737768
