14

 C   -0.082956311269   -3.421315567639   -2.243778980998
 H   -0.075234311269   -4.514490567639   -2.243778980998
 C    1.127519688731   -2.701476567639   -2.243778980998
 H    2.082538688731   -3.235175567639   -2.243778980998
 C   -1.302780311269   -2.721309567639   -2.243778980998
 H   -2.250912311269   -3.267121567639   -2.243778980998
 C    1.125111688731   -1.296331567639   -2.243778980998
 H    2.056465688731   -0.723792567639   -2.243778980998
 C   -1.316631311269   -1.313828567639   -2.243778980998
 H   -2.268630311269   -0.771107567639   -2.243778980998
 C   -0.100354311269   -0.606046567639   -2.243778980998
 O   -0.039807311269    0.774414432361   -2.243778980998
 H   -0.942938311269    1.122841432361   -2.243778980998
 K    0.221936298197    3.690998254759    5.415530980730
