14

 C   -0.084826488049   -3.442154767316   -2.298505297608
 H   -0.077104488049   -4.535329767316   -2.298505297608
 C    1.125649511951   -2.722315767316   -2.298505297608
 H    2.080668511951   -3.256014767316   -2.298505297608
 C   -1.304650488049   -2.742148767316   -2.298505297608
 H   -2.252782488049   -3.287960767316   -2.298505297608
 C    1.123241511951   -1.317170767316   -2.298505297608
 H    2.054595511951   -0.744631767316   -2.298505297608
 C   -1.318501488049   -1.334667767316   -2.298505297608
 H   -2.270500488049   -0.791946767316   -2.298505297608
 C   -0.102224488049   -0.626885767316   -2.298505297608
 O   -0.041677488049    0.753575232684   -2.298505297608
 H   -0.944808488049    1.102002232684   -2.298505297608
 K    0.226450111891    3.741295245872    5.547617102211
