14

 C   -0.086696664829   -3.462993966994   -2.353231614218
 H   -0.078974664829   -4.556168966994   -2.353231614218
 C    1.123779335171   -2.743154966994   -2.353231614218
 H    2.078798335171   -3.276853966994   -2.353231614218
 C   -1.306520664829   -2.762987966994   -2.353231614218
 H   -2.254652664829   -3.308799966994   -2.353231614218
 C    1.121371335171   -1.338009966994   -2.353231614218
 H    2.052725335171   -0.765470966994   -2.353231614218
 C   -1.320371664829   -1.355506966994   -2.353231614218
 H   -2.272370664829   -0.812785966994   -2.353231614218
 C   -0.104094664829   -0.647724966994   -2.353231614218
 O   -0.043547664829    0.732736033006   -2.353231614218
 H   -0.946678664829    1.081163033006   -2.353231614218
 K    0.230963925586    3.791592236985    5.679703223693
