14

 C   -0.088566841610   -3.483833166671   -2.407957930827
 H   -0.080844841610   -4.577008166671   -2.407957930827
 C    1.121909158390   -2.763994166671   -2.407957930827
 H    2.076928158390   -3.297693166671   -2.407957930827
 C   -1.308390841610   -2.783827166671   -2.407957930827
 H   -2.256522841610   -3.329639166671   -2.407957930827
 C    1.119501158390   -1.358849166671   -2.407957930827
 H    2.050855158390   -0.786310166671   -2.407957930827
 C   -1.322241841610   -1.376346166671   -2.407957930827
 H   -2.274240841610   -0.833625166671   -2.407957930827
 C   -0.105964841610   -0.668564166671   -2.407957930827
 O   -0.045417841610    0.711896833329   -2.407957930827
 H   -0.948548841610    1.060323833329   -2.407957930827
 K    0.235477739280    3.841889228098    5.811789345174
