14

 C   -0.089501930000   -3.494252766510   -2.435321089132
 H   -0.081779930000   -4.587427766510   -2.435321089132
 C    1.120974070000   -2.774413766510   -2.435321089132
 H    2.075993070000   -3.308112766510   -2.435321089132
 C   -1.309325930000   -2.794246766510   -2.435321089132
 H   -2.257457930000   -3.340058766510   -2.435321089132
 C    1.118566070000   -1.369268766510   -2.435321089132
 H    2.049920070000   -0.796729766510   -2.435321089132
 C   -1.323176930000   -1.386765766510   -2.435321089132
 H   -2.275175930000   -0.844044766510   -2.435321089132
 C   -0.106899930000   -0.678983766510   -2.435321089132
 O   -0.046352930000    0.701477233490   -2.435321089132
 H   -0.949483930000    1.049904233490   -2.435321089132
 K    0.237734646128    3.867037723654    5.877832405914
