14

 C   -0.091372106780   -3.515091966187   -2.490047405742
 H   -0.083650106780   -4.608266966187   -2.490047405742
 C    1.119103893220   -2.795252966187   -2.490047405742
 H    2.074122893220   -3.328951966187   -2.490047405742
 C   -1.311196106780   -2.815085966187   -2.490047405742
 H   -2.259328106780   -3.360897966187   -2.490047405742
 C    1.116695893220   -1.390107966187   -2.490047405742
 H    2.048049893220   -0.817568966187   -2.490047405742
 C   -1.325047106780   -1.407604966187   -2.490047405742
 H   -2.277046106780   -0.864883966187   -2.490047405742
 C   -0.108770106780   -0.699822966187   -2.490047405742
 O   -0.048223106780    0.680638033813   -2.490047405742
 H   -0.951354106780    1.029065033813   -2.490047405742
 K    0.242248459822    3.917334714767    6.009918527396
