14

 C   -0.092307195170   -3.525511566026   -2.517410564047
 H   -0.084585195170   -4.618686566026   -2.517410564047
 C    1.118168804830   -2.805672566026   -2.517410564047
 H    2.073187804830   -3.339371566026   -2.517410564047
 C   -1.312131195170   -2.825505566026   -2.517410564047
 H   -2.260263195170   -3.371317566026   -2.517410564047
 C    1.115760804830   -1.400527566026   -2.517410564047
 H    2.047114804830   -0.827988566026   -2.517410564047
 C   -1.325982195170   -1.418024566026   -2.517410564047
 H   -2.277981195170   -0.875303566026   -2.517410564047
 C   -0.109705195170   -0.710242566026   -2.517410564047
 O   -0.049158195170    0.670218433974   -2.517410564047
 H   -0.952289195170    1.018645433974   -2.517410564047
 K    0.244505366670    3.942483210323    6.075961588136
