14

 C   -0.096047548730   -3.567189965381   -2.626863197266
 H   -0.088325548730   -4.660364965381   -2.626863197266
 C    1.114428451270   -2.847350965381   -2.626863197266
 H    2.069447451270   -3.381049965381   -2.626863197266
 C   -1.315871548730   -2.867183965381   -2.626863197266
 H   -2.264003548730   -3.412995965381   -2.626863197266
 C    1.112020451270   -1.442205965381   -2.626863197266
 H    2.043374451270   -0.869666965381   -2.626863197266
 C   -1.329722548730   -1.459702965381   -2.626863197266
 H   -2.281721548730   -0.916981965381   -2.626863197266
 C   -0.113445548730   -0.751920965381   -2.626863197266
 O   -0.052898548730    0.628540034619   -2.626863197266
 H   -0.956029548730    0.976967034619   -2.626863197266
 K    0.253532994059    4.043077192549    6.340133831099
