14

 C   -0.096982637120   -3.577609565219   -2.654226355571
 H   -0.089260637120   -4.670784565219   -2.654226355571
 C    1.113493362880   -2.857770565219   -2.654226355571
 H    2.068512362880   -3.391469565219   -2.654226355571
 C   -1.316806637120   -2.877603565219   -2.654226355571
 H   -2.264938637120   -3.423415565219   -2.654226355571
 C    1.111085362880   -1.452625565219   -2.654226355571
 H    2.042439362880   -0.880086565219   -2.654226355571
 C   -1.330657637120   -1.470122565219   -2.654226355571
 H   -2.282656637120   -0.927401565219   -2.654226355571
 C   -0.114380637120   -0.762340565219   -2.654226355571
 O   -0.053833637120    0.618120434781   -2.654226355571
 H   -0.956964637120    0.966547434781   -2.654226355571
 K    0.255789900906    4.068225688105    6.406176891839
