14

 C   -0.097917725510   -3.588029165058   -2.681589513876
 H   -0.090195725510   -4.681204165058   -2.681589513876
 C    1.112558274490   -2.868190165058   -2.681589513876
 H    2.067577274490   -3.401889165058   -2.681589513876
 C   -1.317741725510   -2.888023165058   -2.681589513876
 H   -2.265873725510   -3.433835165058   -2.681589513876
 C    1.110150274490   -1.463045165058   -2.681589513876
 H    2.041504274490   -0.890506165058   -2.681589513876
 C   -1.331592725510   -1.480542165058   -2.681589513876
 H   -2.283591725510   -0.937821165058   -2.681589513876
 C   -0.115315725510   -0.772760165058   -2.681589513876
 O   -0.054768725510    0.607700834942   -2.681589513876
 H   -0.957899725510    0.956127834942   -2.681589513876
 K    0.258046807754    4.093374183662    6.472219952580
