14

 C   -0.098852813900   -3.598448764897   -2.708952672181
 H   -0.091130813900   -4.691623764897   -2.708952672181
 C    1.111623186100   -2.878609764897   -2.708952672181
 H    2.066642186100   -3.412308764897   -2.708952672181
 C   -1.318676813900   -2.898442764897   -2.708952672181
 H   -2.266808813900   -3.444254764897   -2.708952672181
 C    1.109215186100   -1.473464764897   -2.708952672181
 H    2.040569186100   -0.900925764897   -2.708952672181
 C   -1.332527813900   -1.490961764897   -2.708952672181
 H   -2.284526813900   -0.948240764897   -2.708952672181
 C   -0.116250813900   -0.783179764897   -2.708952672181
 O   -0.055703813900    0.597281235103   -2.708952672181
 H   -0.958834813900    0.945708235103   -2.708952672181
 K    0.260303714601    4.118522679218    6.538263013320
