16

 C    3.327270560913    1.899295555399    3.979691264712
 H    3.509754153066    1.128677962241    4.739573446171
 H    2.917066906455    2.810945373616    4.432617373649
 H    4.293444960023    2.155004992051    3.517148320824
 C    2.397091831500    1.373524273544    2.895329349874
 O    1.660635485181    2.208413359861    2.262685563248
 O    2.402957573700    0.118901145834    2.639296592697
 K    2.106904243884    0.751872212685    0.018180847061
 K   -0.269029841838    0.301475865292    2.202972494913
 C   -3.599749288754   -2.059907327434   -4.333048339473
 O   -3.647634457665   -0.795796815433   -4.128611383550
 O   -2.888514572833   -2.944223669217   -3.737907489400
 C   -4.509062301500   -2.580525427953   -5.429101705264
 H   -4.797292842618   -3.619338233906   -5.226394004730
 H   -3.954497202627   -2.558459731671   -6.375288768512
 H   -5.390386144846   -1.935909706479   -5.534164340286
