16

 C    1.936648804456    1.103108931828    2.303485562889
 H    2.119132396609    0.332491338670    3.063367744348
 H    1.526445149998    2.014758750045    2.756411671826
 H    2.902823203566    1.358818368480    1.840942619001
 C    1.006470075043    0.577337649973    1.219123648051
 O    0.270013728724    1.412226736290    0.586479861425
 O    1.012335817243   -0.677285477737    0.963090890874
 K    0.716282487427   -0.044314410886   -1.658024854762
 K   -1.659651598295   -0.494710758279    0.526766793090
 C   -0.372803382615   -0.212351618252   -0.443403220498
 O   -0.420688551527    1.051758893749   -0.238966264575
 O    0.338431333305   -1.096667960035    0.151737629574
 C   -1.282116395362   -0.732969718771   -1.539456586289
 H   -1.570346936480   -1.771782524724   -1.336748885755
 H   -0.727551296489   -0.710904022489   -2.485643649538
 H   -2.163440238708   -0.088353997297   -1.644519221312
