16

 C    1.972768850078    1.123789103869    2.347023373326
 H    2.155252442231    0.353171510711    3.106905554785
 H    1.562565195620    2.035438922086    2.799949482263
 H    2.938943249188    1.379498540521    1.884480429438
 C    1.042590120665    0.598017822014    1.262661458488
 O    0.306133774346    1.432906908331    0.630017671862
 O    1.048455862865   -0.656605305696    1.006628701311
 K    0.752402533049   -0.023634238845   -1.614487044325
 K   -1.623531552673   -0.474030586238    0.570304603527
 C   -0.456620159398   -0.260340078230   -0.544432963848
 O   -0.504505328310    1.003770433770   -0.339996007925
 O    0.254614556522   -1.144656420014    0.050707886224
 C   -1.365933172145   -0.780958178750   -1.640486329639
 H   -1.654163713262   -1.819770984703   -1.437778629105
 H   -0.811368073271   -0.758892482468   -2.586673392888
 H   -2.247257015490   -0.136342457275   -1.745548964662
