16

 C    1.990828872889    1.134129189889    2.368792278545
 H    2.173312465042    0.363511596731    3.128674460004
 H    1.580625218431    2.045779008106    2.821718387482
 H    2.957003271999    1.389838626541    1.906249334657
 C    1.060650143476    0.608357908034    1.284430363707
 O    0.324193797157    1.443246994351    0.651786577081
 O    1.066515885676   -0.646265219676    1.028397606530
 K    0.770462555860   -0.013294152825   -1.592718139106
 K   -1.605471529862   -0.463690500218    0.592073508746
 C   -0.498528547790   -0.284334308220   -0.594947835523
 O   -0.546413716701    0.979776203781   -0.390510879600
 O    0.212706168131   -1.168650650003    0.000193014549
 C   -1.407841560536   -0.804952408739   -1.691001201314
 H   -1.696072101654   -1.843765214692   -1.488293500780
 H   -0.853276461663   -0.782886712457   -2.637188264563
 H   -2.289165403882   -0.160336687265   -1.796063836337
