16

 C    2.008888895700    1.144469275910    2.390561183763
 H    2.191372487853    0.373851682752    3.150443365222
 H    1.598685241242    2.056119094127    2.843487292700
 H    2.975063294810    1.400178712562    1.928018239875
 C    1.078710166287    0.618697994055    1.306199268925
 O    0.342253819968    1.453587080372    0.673555482299
 O    1.084575908487   -0.635925133655    1.050166511748
 K    0.788522578671   -0.002954066804   -1.570949233888
 K   -1.587411507051   -0.453350414197    0.613842413964
 C   -0.540436936181   -0.308328538209   -0.645462707198
 O   -0.588322105093    0.955781973792   -0.441025751275
 O    0.170797779739   -1.192644879992   -0.050321857126
 C   -1.449749948927   -0.828946638729   -1.741516072989
 H   -1.737980490045   -1.867759444681   -1.538808372455
 H   -0.895184850054   -0.806880942447   -2.687703136238
 H   -2.331073792273   -0.184330917254   -1.846578708012
