16

 C    2.026948918511    1.154809361930    2.412330088982
 H    2.209432510664    0.384191768772    3.172212270441
 H    1.616745264053    2.066459180147    2.865256197919
 H    2.993123317621    1.410518798582    1.949787145094
 C    1.096770189098    0.629038080075    1.327968174144
 O    0.360313842779    1.463927166392    0.695324387518
 O    1.102635931298   -0.625585047635    1.071935416967
 K    0.806582601482    0.007386019216   -1.549180328669
 K   -1.569351484240   -0.443010328177    0.635611319183
 C   -0.582345324572   -0.332322768199   -0.695977578873
 O   -0.630230493484    0.931787743802   -0.491540622950
 O    0.128889391348   -1.216639109982   -0.100836728801
 C   -1.491658337319   -0.852940868718   -1.792030944664
 H   -1.779888878437   -1.891753674671   -1.589323244130
 H   -0.937093238446   -0.830875172436   -2.738218007913
 H   -2.372982180665   -0.208325147243   -1.897093579687
