16

 C    2.045008941323    1.165149447951    2.434098994200
 H    2.227492533476    0.394531854793    3.193981175659
 H    1.634805286865    2.076799266168    2.887025103137
 H    3.011183340433    1.420858884603    1.971556050312
 C    1.114830211910    0.639378166096    1.349737079362
 O    0.378373865591    1.474267252413    0.717093292736
 O    1.120695954110   -0.615244961614    1.093704322185
 K    0.824642624294    0.017726105237   -1.527411423451
 K   -1.551291461428   -0.432670242156    0.657380224401
 C   -0.624253712964   -0.356316998188   -0.746492450548
 O   -0.672138881876    0.907793513813   -0.542055494625
 O    0.086981002957   -1.240633339971   -0.151351600476
 C   -1.533566725710   -0.876935098708   -1.842545816339
 H   -1.821797266828   -1.915747904660   -1.639838115805
 H   -0.979001626837   -0.854869402425   -2.788732879588
 H   -2.414890569056   -0.232319377233   -1.947608451362
