16

 C    2.081128986945    1.185829619992    2.477636804637
 H    2.263612579098    0.415212026834    3.237518986096
 H    1.670925332487    2.097479438209    2.930562913574
 H    3.047303386055    1.441539056644    2.015093860749
 C    1.150950257532    0.660058338137    1.393274889799
 O    0.414493911213    1.494947424454    0.760631103173
 O    1.156815999732   -0.594564789573    1.137242132622
 K    0.860762669916    0.038406277278   -1.483873613014
 K   -1.515171415806   -0.411990070115    0.700918034838
 C   -0.708070489747   -0.404305458167   -0.847522193898
 O   -0.755955658659    0.859805053834   -0.643085237975
 O    0.003164226174   -1.288621799950   -0.252381343826
 C   -1.617383502493   -0.924923558686   -1.943575559689
 H   -1.905614043611   -1.963736364639   -1.740867859155
 H   -1.062818403620   -0.902857862404   -2.889762622938
 H   -2.498707345839   -0.280307837212   -2.048638194712
