16

 C    2.135309055378    1.216849878053    2.542943520293
 H    2.317792647531    0.446232284895    3.302825701752
 H    1.725105400920    2.128499696270    2.995869629230
 H    3.101483454488    1.472559314705    2.080400576405
 C    1.205130325965    0.691078596198    1.458581605455
 O    0.468673979646    1.525967682515    0.825937818829
 O    1.210996068165   -0.563544531512    1.202548848278
 K    0.914942738349    0.069426535339   -1.418566897358
 K   -1.460991347373   -0.380969812054    0.766224750494
 C   -0.833795654921   -0.476288148135   -0.999066808923
 O   -0.881680823833    0.787822363866   -0.794629853000
 O   -0.122560939001   -1.360604489918   -0.403925958851
 C   -1.743108667667   -0.996906248654   -2.095120174714
 H   -2.031339208785   -2.035719054607   -1.892412474180
 H   -1.188543568794   -0.974840552372   -3.041307237963
 H   -2.624432511013   -0.352290527180   -2.200182809737
