16

 C    2.189489123812    1.247870136114    2.608250235948
 H    2.371972715965    0.477252542956    3.368132417407
 H    1.779285469354    2.159519954331    3.061176344885
 H    3.155663522922    1.503579572766    2.145707292060
 C    1.259310394399    0.722098854259    1.523888321110
 O    0.522854048080    1.556987940576    0.891244534484
 O    1.265176136599   -0.532524273451    1.267855563933
 K    0.969122806783    0.100446793400   -1.353260181703
 K   -1.406811278939   -0.349949553993    0.831531466149
 C   -0.959520820095   -0.548270838103   -1.150611423948
 O   -1.007405989007    0.715839673898   -0.946174468025
 O   -0.248286104175   -1.432587179886   -0.555470573876
 C   -1.868833832841   -1.068888938623   -2.246664789739
 H   -2.157064373959   -2.107701744575   -2.043957089205
 H   -1.314268733968   -1.046823242340   -3.192851852988
 H   -2.750157676187   -0.424273217148   -2.351727424762
