16

 C    2.225609169434    1.268550308155    2.651788046385
 H    2.408092761587    0.497932714997    3.411670227844
 H    1.815405514976    2.180200126372    3.104714155322
 H    3.191783568544    1.524259744807    2.189245102497
 C    1.295430440021    0.742779026300    1.567426131547
 O    0.558974093702    1.577668112617    0.934782344921
 O    1.301296182221   -0.511844101410    1.311393374370
 K    1.005242852405    0.121126965441   -1.309722371266
 K   -1.370691233317   -0.329269381952    0.875069276586
 C   -1.043337596878   -0.596259298082   -1.251641167298
 O   -1.091222765790    0.667851213919   -1.047204211375
 O   -0.332102880958   -1.480575639865   -0.656500317226
 C   -1.952650609624   -1.116877398601   -2.347694533089
 H   -2.240881150742   -2.155690204554   -2.144986832555
 H   -1.398085510751   -1.094811702319   -3.293881596338
 H   -2.833974452970   -0.472261677127   -2.452757168112
