16

 C    2.279789237867    1.299570566216    2.717094762040
 H    2.462272830020    0.528952973058    3.476976943499
 H    1.869585583409    2.211220384433    3.170020870977
 H    3.245963636977    1.555280002868    2.254551818152
 C    1.349610508454    0.773799284361    1.632732847202
 O    0.613154162135    1.608688370678    1.000089060576
 O    1.355476250654   -0.480823843349    1.376700090025
 K    1.059422920838    0.152147223502   -1.244415655611
 K   -1.316511164884   -0.298249123891    0.940375992241
 C   -1.169062762052   -0.668241988050   -1.403185782323
 O   -1.216947930964    0.595868523951   -1.198748826400
 O   -0.457828046132   -1.552558329833   -0.808044932251
 C   -2.078375774798   -1.188860088569   -2.499239148114
 H   -2.366606315916   -2.227672894522   -2.296531447580
 H   -1.523810675925   -1.166794392287   -3.445426211363
 H   -2.959699618144   -0.544244367095   -2.604301783136
