16

 C    2.424269420356    1.382291254379    2.891246003788
 H    2.606753012509    0.611673661221    3.651128185247
 H    2.014065765898    2.293941072596    3.344172112725
 H    3.390443819466    1.638000691031    2.428703059900
 C    1.494090690943    0.856519972524    1.806884088950
 O    0.757634344624    1.691409058841    1.174240302324
 O    1.499956433143   -0.398103155186    1.550851331773
 K    1.203903103327    0.234867911665   -1.070264413863
 K   -1.172030982395   -0.215528435728    1.114527233989
 C   -1.504329869183   -0.860195827965   -1.807304755723
 O   -1.552215038095    0.403914684036   -1.602867799800
 O   -0.793095153263   -1.744512169748   -1.212163905651
 C   -2.413642881930   -1.380813928484   -2.903358121514
 H   -2.701873423048   -2.419626734437   -2.700650420980
 H   -1.859077783056   -1.358748232202   -3.849545184763
 H   -3.294966725275   -0.736198207010   -3.008420756536
