16

 C    2.460389465978    1.402971426420    2.934783814225
 H    2.642873058131    0.632353833262    3.694665995684
 H    2.050185811520    2.314621244637    3.387709923162
 H    3.426563865088    1.658680863072    2.472240870337
 C    1.530210736565    0.877200144565    1.850421899387
 O    0.793754390246    1.712089230882    1.217778112761
 O    1.536076478765   -0.377422983145    1.594389142210
 K    1.240023148949    0.255548083706   -1.026726603426
 K   -1.135910936773   -0.194848263687    1.158065044426
 C   -1.588146645966   -0.908184287944   -1.908334499073
 O   -1.636031814878    0.355926224057   -1.703897543150
 O   -0.876911930046   -1.792500629727   -1.313193649001
 C   -2.497459658712   -1.428802388463   -3.004387864864
 H   -2.785690199830   -2.467615194416   -2.801680164330
 H   -1.942894559839   -1.406736692181   -3.950574928113
 H   -3.378783502058   -0.784186666989   -3.109450499886
