16

 C    2.496509511601    1.423651598461    2.978321624662
 H    2.678993103754    0.653034005303    3.738203806121
 H    2.086305857143    2.335301416678    3.431247733599
 H    3.462683910711    1.679361035113    2.515778680774
 C    1.566330782188    0.897880316606    1.893959709824
 O    0.829874435869    1.732769402923    1.261315923198
 O    1.572196524388   -0.356742811104    1.637926952647
 K    1.276143194572    0.276228255747   -0.983188792989
 K   -1.099790891150   -0.174168091646    1.201602854863
 C   -1.671963422749   -0.956172747922   -2.009364242423
 O   -1.719848591661    0.307937764078   -1.804927286500
 O   -0.960728706829   -1.840489089706   -1.414223392351
 C   -2.581276435495   -1.476790848442   -3.105417608214
 H   -2.869506976613   -2.515603654395   -2.902709907680
 H   -2.026711336622   -1.454725152160   -4.051604671463
 H   -3.462600278841   -0.832175126967   -3.210480243236
