16

 C    2.532629557223    1.444331770502    3.021859435099
 H    2.715113149376    0.673714177344    3.781741616558
 H    2.122425902765    2.355981588719    3.474785544036
 H    3.498803956333    1.700041207154    2.559316491211
 C    1.602450827810    0.918560488647    1.937497520261
 O    0.865994481491    1.753449574964    1.304853733635
 O    1.608316570010   -0.336062639063    1.681464763084
 K    1.312263240194    0.296908427788   -0.939650982552
 K   -1.063670845528   -0.153487919605    1.245140665300
 C   -1.755780199532   -1.004161207901   -2.110393985773
 O   -1.803665368444    0.259949304100   -1.905957029850
 O   -1.044545483611   -1.888477549684   -1.515253135701
 C   -2.665093212278   -1.524779308421   -3.206447351564
 H   -2.953323753396   -2.563592114373   -3.003739651030
 H   -2.110528113405   -1.502713612139   -4.152634414813
 H   -3.546417055624   -0.880163586946   -3.311509986586
