16

 C    2.785469876579    1.589092974787    3.326624108158
 H    2.967953468732    0.818475381629    4.086506289617
 H    2.375266222121    2.500742793004    3.779550217095
 H    3.751644275689    1.844802411439    2.864081164270
 C    1.855291147166    1.063321692932    2.242262193320
 O    1.118834800847    1.898210779249    1.609618406694
 O    1.861156889366   -0.191301434778    1.986229436143
 K    1.565103559550    0.441669632073   -0.634886309493
 K   -0.810830526172   -0.008726715320    1.549905338359
 C   -2.342497637011   -1.340080427752   -2.817602189223
 O   -2.390382805923   -0.075969915752   -2.613165233300
 O   -1.631262921091   -2.224396769536   -2.222461339151
 C   -3.251810649758   -1.860698528272   -3.913655555014
 H   -3.540041190876   -2.899511334225   -3.710947854480
 H   -2.697245550884   -1.838632831990   -4.859842618263
 H   -4.133134493104   -1.216082806797   -4.018718190036
