16

 C    2.821589922201    1.609773146828    3.370161918595
 H    3.004073514354    0.839155553670    4.130044100054
 H    2.411386267743    2.521422965045    3.823088027532
 H    3.787764321311    1.865482583480    2.907618974707
 C    1.891411192788    1.084001864973    2.285800003757
 O    1.154954846469    1.918890951290    1.653156217131
 O    1.897276934988   -0.170621262737    2.029767246580
 K    1.601223605172    0.462349804114   -0.591348499056
 K   -0.774710480550    0.011953456721    1.593443148796
 C   -2.426314413794   -1.388068887731   -2.918631932573
 O   -2.474199582706   -0.123958375730   -2.714194976650
 O   -1.715079697874   -2.272385229514   -2.323491082501
 C   -3.335627426540   -1.908686988251   -4.014685298364
 H   -3.623857967658   -2.947499794203   -3.811977597830
 H   -2.781062327667   -1.886621291969   -4.960872361613
 H   -4.216951269886   -1.264071266776   -4.119747933386
