16

 C    2.839649945012    1.620113232848    3.391930823813
 H    3.022133537165    0.849495639690    4.151813005272
 H    2.429446290554    2.531763051065    3.844856932750
 H    3.805824344122    1.875822669500    2.929387879925
 C    1.909471215599    1.094341950993    2.307568908975
 O    1.173014869280    1.929231037310    1.674925122349
 O    1.915336957799   -0.160281176717    2.051536151798
 K    1.619283627983    0.472689890134   -0.569579593838
 K   -0.756650457739    0.022293542741    1.615212054014
 C   -2.468222802186   -1.412063117721   -2.969146804248
 O   -2.516107971097   -0.147952605720   -2.764709848325
 O   -1.756988086265   -2.296379459504   -2.374005954176
 C   -3.377535814932   -1.932681218240   -4.065200170039
 H   -3.665766356050   -2.971494024193   -3.862492469505
 H   -2.822970716059   -1.910615521958   -5.011387233288
 H   -4.258859658278   -1.288065496766   -4.170262805061
