16

 C    3.002190150312    1.713174007032    3.587850970779
 H    3.184673742465    0.942556413874    4.347733152238
 H    2.591986495854    2.624823825249    4.040777079716
 H    3.968364549422    1.968883443684    3.125308026891
 C    2.072011420899    1.187402725177    2.503489055941
 O    1.335555074580    2.022291811494    1.870845269315
 O    2.077877163099   -0.067220402533    2.247456298764
 K    1.781823833283    0.565750664318   -0.373659446872
 K   -0.594110252439    0.115354316925    1.811132200980
 C   -2.845398297708   -1.628011187625   -3.423780649323
 O   -2.893283466620   -0.363900675624   -3.219343693400
 O   -2.134163581788   -2.512327529408   -2.828639799251
 C   -3.754711310455   -2.148629288145   -4.519834015114
 H   -4.042941851572   -3.187442094097   -4.317126314580
 H   -3.200146211581   -2.126563591862   -5.466021078363
 H   -4.636035153800   -1.504013566670   -4.624896650136
