16

 C    3.038310195935    1.733854179073    3.631388781216
 H    3.220793788088    0.963236585915    4.391270962675
 H    2.628106541477    2.645503997290    4.084314890153
 H    4.004484595045    1.989563615725    3.168845837328
 C    2.108131466522    1.208082897218    2.547026866378
 O    1.371675120203    2.042971983535    1.914383079752
 O    2.113997208722   -0.046540230492    2.290994109201
 K    1.817943878906    0.586430836359   -0.330121636435
 K   -0.557990206816    0.136034488966    1.854670011417
 C   -2.929215074491   -1.675999647604   -3.524810392673
 O   -2.977100243403   -0.411889135603   -3.320373436750
 O   -2.217980358571   -2.560315989387   -2.929669542601
 C   -3.838528087237   -2.196617748123   -4.620863758464
 H   -4.126758628355   -3.235430554076   -4.418156057930
 H   -3.283962988364   -2.174552051841   -5.567050821713
 H   -4.719851930583   -1.552002026649   -4.725926393486
