16

 C    3.056370218746    1.744194265093    3.653157686435
 H    3.238853810899    0.973576671935    4.413039867894
 H    2.646166564288    2.655844083310    4.106083795372
 H    4.022544617856    1.999903701745    3.190614742547
 C    2.126191489333    1.218422983238    2.568795771597
 O    1.389735143014    2.053312069555    1.936151984971
 O    2.132057231533   -0.036200144472    2.312763014420
 K    1.836003901717    0.596770922379   -0.308352731216
 K   -0.539930184005    0.146374574986    1.876438916636
 C   -2.971123462883   -1.699993877593   -3.575325264348
 O   -3.019008631794   -0.435883365592   -3.370888308425
 O   -2.259888746962   -2.584310219376   -2.980184414275
 C   -3.880436475629   -2.220611978113   -4.671378630139
 H   -4.168667016747   -3.259424784065   -4.468670929605
 H   -3.325871376756   -2.198546281831   -5.617565693388
 H   -4.761760318975   -1.575996256638   -4.776441265161
