16

 C    3.074430241557    1.754534351114    3.674926591653
 H    3.256913833710    0.983916757956    4.434808773112
 H    2.664226587099    2.666184169331    4.127852700590
 H    4.040604640667    2.010243787766    3.212383647765
 C    2.144251512144    1.228763069259    2.590564676815
 O    1.407795165825    2.063652155576    1.957920890189
 O    2.150117254344   -0.025860058451    2.334531919638
 K    1.854063924528    0.607111008400   -0.286583825998
 K   -0.521870161194    0.156714661007    1.898207821854
 C   -3.013031851274   -1.723988107583   -3.625840136023
 O   -3.060917020186   -0.459877595582   -3.421403180100
 O   -2.301797135354   -2.608304449366   -3.030699285950
 C   -3.922344864020   -2.244606208102   -4.721893501814
 H   -4.210575405138   -3.283419014055   -4.519185801280
 H   -3.367779765147   -2.222540511820   -5.668080565063
 H   -4.803668707366   -1.599990486627   -4.826956136836
