16

 C    3.164730355612    1.806234781216    3.783771117746
 H    3.347213947765    1.035617188058    4.543653299205
 H    2.754526701154    2.717884599433    4.236697226683
 H    4.130904754722    2.061944217868    3.321228173858
 C    2.234551626199    1.280463499361    2.699409202908
 O    1.498095279880    2.115352585678    2.066765416282
 O    2.240417368399    0.025840371651    2.443376445731
 K    1.944364038583    0.658811438502   -0.177739299905
 K   -0.431570047139    0.208415091109    2.007052347947
 C   -3.222573793231   -1.843959257529   -3.878414494398
 O   -3.270458962143   -0.579848745529   -3.673977538475
 O   -2.511339077311   -2.728275599313   -3.283273644325
 C   -4.131886805977   -2.364577358049   -4.974467860189
 H   -4.420117347095   -3.403390164002   -4.771760159655
 H   -3.577321707104   -2.342511661767   -5.920654923438
 H   -5.013210649323   -1.719961636574   -5.079530495211
