16

 C    3.218910424046    1.837255039277    3.849077833401
 H    3.401394016199    1.066637446119    4.608960014860
 H    2.808706769588    2.748904857494    4.302003942338
 H    4.185084823156    2.092964475929    3.386534889513
 C    2.288731694633    1.311483757422    2.764715918563
 O    1.552275348314    2.146372843739    2.132072131937
 O    2.294597436833    0.056860629712    2.508683161386
 K    1.998544107017    0.689831696563   -0.112432584250
 K   -0.377389978705    0.239435349170    2.072359063602
 C   -3.348298958405   -1.915941947498   -4.029959109423
 O   -3.396184127317   -0.651831435497   -3.825522153500
 O   -2.637064242485   -2.800258289281   -3.434818259350
 C   -4.257611971151   -2.436560048017   -5.126012475214
 H   -4.545842512269   -3.475372853970   -4.923304774680
 H   -3.703046872278   -2.414494351735   -6.072199538463
 H   -5.138935814497   -1.791944326542   -5.231075110236
