16

 C    3.236970446857    1.847595125297    3.870846738620
 H    3.419454039010    1.076977532139    4.630728920079
 H    2.826766792399    2.759244943514    4.323772847557
 H    4.203144845967    2.103304561949    3.408303794732
 C    2.306791717444    1.321823843442    2.786484823782
 O    1.570335371125    2.156712929759    2.153841037156
 O    2.312657459644    0.067200715732    2.530452066605
 K    2.016604129828    0.700171782583   -0.090663679031
 K   -0.359329955894    0.249775435190    2.094127968821
 C   -3.390207346797   -1.939936177487   -4.080473981098
 O   -3.438092515708   -0.675825665486   -3.876037025175
 O   -2.678972630876   -2.824252519270   -3.485333131025
 C   -4.299520359543   -2.460554278006   -5.176527346889
 H   -4.587750900661   -3.499367083959   -4.973819646355
 H   -3.744955260670   -2.438488581724   -6.122714410138
 H   -5.180844202889   -1.815938556532   -5.281589981911
