23

 C   -3.865305129074    0.294102619908    0.000000000000
 C   -2.852255129074   -0.813137380092    0.000000000000
 O   -3.419675129074   -2.013557380092    0.000000000000
 C   -2.519645129074   -3.156927380092    0.000000000000
 O   -1.623405129074   -0.650087380092    0.000000000000
 H   -3.363915129074    1.267022619908    0.000000000000
 H   -4.507615129074    0.197662619908    0.886250000000
 H   -4.507615129074    0.197662619908   -0.886250000000
 H   -3.178245129074   -4.028937380092    0.000000000000
 H   -1.896175129074   -3.137507380092    0.902150000000
 H   -1.896175129074   -3.137507380092   -0.902150000000
NA    0.388704870926    0.155652619908    0.000000000000
 O    1.502705759745    0.601749044138    0.000000000000
 C    2.731554848832    0.764806275349    0.000000000000
 O    3.298974998850    1.965226012879    0.000000000000
 C    2.398940734218    3.108590974118    0.000000000000
 H    3.057534986798    3.980600081507    0.000000000000
 H    1.775475895207    3.089168966824   -0.902143383421
 H    1.775475895207    3.089168966824    0.902143383421
 C    3.744609040073   -0.342429818765    0.000000000000
 H    3.243224413565   -1.315345846180    0.000000000000
 H    4.386917342242   -0.245988187844   -0.886247465266
 H    4.386917342242   -0.245988187844    0.886247465266
