23

 C   -3.945662346278    0.261923949662    0.000000000000
 C   -2.932612346278   -0.845316050338    0.000000000000
 O   -3.500032346278   -2.045736050338    0.000000000000
 C   -2.600002346278   -3.189106050338    0.000000000000
 O   -1.703762346278   -0.682266050338    0.000000000000
 H   -3.444272346278    1.234843949662    0.000000000000
 H   -4.587972346278    0.165483949662    0.886250000000
 H   -4.587972346278    0.165483949662   -0.886250000000
 H   -3.258602346278   -4.061116050338    0.000000000000
 H   -1.976532346278   -3.169686050338    0.902150000000
 H   -1.976532346278   -3.169686050338   -0.902150000000
NA    0.308347653722    0.123473949662    0.000000000000
 O    1.608015357344    0.643919777930    0.000000000000
 C    2.836864446431    0.806977009140    0.000000000000
 O    3.404284596450    2.007396746671    0.000000000000
 C    2.504250331818    3.150761707910    0.000000000000
 H    3.162844584397    4.022770815299    0.000000000000
 H    1.880785492806    3.131339700616   -0.902143383421
 H    1.880785492806    3.131339700616    0.902143383421
 C    3.849918637673   -0.300259084973    0.000000000000
 H    3.348534011165   -1.273175112389    0.000000000000
 H    4.492226939841   -0.203817454052   -0.886247465266
 H    4.492226939841   -0.203817454052    0.886247465266
