23

 C   -4.026019563482    0.229745279415    0.000000000000
 C   -3.012969563482   -0.877494720585    0.000000000000
 O   -3.580389563482   -2.077914720585    0.000000000000
 C   -2.680359563482   -3.221284720585    0.000000000000
 O   -1.784119563482   -0.714444720585    0.000000000000
 H   -3.524629563482    1.202665279415    0.000000000000
 H   -4.668329563482    0.133305279415    0.886250000000
 H   -4.668329563482    0.133305279415   -0.886250000000
 H   -3.338959563482   -4.093294720585    0.000000000000
 H   -2.056889563482   -3.201864720585    0.902150000000
 H   -2.056889563482   -3.201864720585   -0.902150000000
NA    0.227990436518    0.091295279415    0.000000000000
 O    1.713324954943    0.686090511722    0.000000000000
 C    2.942174044030    0.849147742932    0.000000000000
 O    3.509594194049    2.049567480463    0.000000000000
 C    2.609559929417    3.192932441701    0.000000000000
 H    3.268154181996    4.064941549090    0.000000000000
 H    1.986095090406    3.173510434408   -0.902143383421
 H    1.986095090406    3.173510434408    0.902143383421
 C    3.955228235272   -0.258088351182    0.000000000000
 H    3.453843608764   -1.231004378597    0.000000000000
 H    4.597536537440   -0.161646720260   -0.886247465266
 H    4.597536537440   -0.161646720260    0.886247465266
