23

 C   -4.066198172084    0.213655944292    0.000000000000
 C   -3.053148172084   -0.893584055708    0.000000000000
 O   -3.620568172084   -2.094004055708    0.000000000000
 C   -2.720538172084   -3.237374055708    0.000000000000
 O   -1.824298172084   -0.730534055708    0.000000000000
 H   -3.564808172084    1.186575944292    0.000000000000
 H   -4.708508172084    0.117215944292    0.886250000000
 H   -4.708508172084    0.117215944292   -0.886250000000
 H   -3.379138172084   -4.109384055708    0.000000000000
 H   -2.097068172084   -3.217954055708    0.902150000000
 H   -2.097068172084   -3.217954055708   -0.902150000000
NA    0.187811827916    0.075205944292    0.000000000000
 O    1.765979753743    0.707175878618    0.000000000000
 C    2.994828842830    0.870233109828    0.000000000000
 O    3.562248992849    2.070652847359    0.000000000000
 C    2.662214728217    3.214017808597    0.000000000000
 H    3.320808980796    4.086026915986    0.000000000000
 H    2.038749889205    3.194595801303   -0.902143383421
 H    2.038749889205    3.194595801303    0.902143383421
 C    4.007883034072   -0.237002984286    0.000000000000
 H    3.506498407564   -1.209919011701    0.000000000000
 H    4.650191336240   -0.140561353364   -0.886247465266
 H    4.650191336240   -0.140561353364    0.886247465266
