23

 C   -4.106376780686    0.197566609169    0.000000000000
 C   -3.093326780686   -0.909673390831    0.000000000000
 O   -3.660746780686   -2.110093390831    0.000000000000
 C   -2.760716780686   -3.253463390831    0.000000000000
 O   -1.864476780686   -0.746623390831    0.000000000000
 H   -3.604986780686    1.170486609169    0.000000000000
 H   -4.748686780686    0.101126609169    0.886250000000
 H   -4.748686780686    0.101126609169   -0.886250000000
 H   -3.419316780686   -4.125473390831    0.000000000000
 H   -2.137246780686   -3.234043390831    0.902150000000
 H   -2.137246780686   -3.234043390831   -0.902150000000
NA    0.147633219314    0.059116609169    0.000000000000
 O    1.818634552543    0.728261245513    0.000000000000
 C    3.047483641630    0.891318476724    0.000000000000
 O    3.614903791648    2.091738214254    0.000000000000
 C    2.714869527016    3.235103175493    0.000000000000
 H    3.373463779596    4.107112282882    0.000000000000
 H    2.091404688005    3.215681168199   -0.902143383421
 H    2.091404688005    3.215681168199    0.902143383421
 C    4.060537832871   -0.215917617390    0.000000000000
 H    3.559153206363   -1.188833644805    0.000000000000
 H    4.702846135040   -0.119475986468   -0.886247465266
 H    4.702846135040   -0.119475986468    0.886247465266
