23

 C   -7.401022686042   -1.121758870940    0.000000000000
 C   -6.387972686042   -2.228998870940    0.000000000000
 O   -6.955392686042   -3.429418870940    0.000000000000
 C   -6.055362686042   -4.572788870940    0.000000000000
 O   -5.159122686042   -2.065948870940    0.000000000000
 H   -6.899632686042   -0.148838870940    0.000000000000
 H   -8.043332686042   -1.218198870940    0.886250000000
 H   -8.043332686042   -1.218198870940   -0.886250000000
 H   -6.713962686042   -5.444798870940    0.000000000000
 H   -5.431892686042   -4.553368870940    0.902150000000
 H   -5.431892686042   -4.553368870940   -0.902150000000
NA   -3.147012686042   -1.260208870940    0.000000000000
 O    6.136328054116    2.457261330975    0.000000000000
 C    7.365177143203    2.620318562185    0.000000000000
 O    7.932597293221    3.820738299716    0.000000000000
 C    7.032563028589    4.964103260954    0.000000000000
 H    7.691157281169    5.836112368343    0.000000000000
 H    6.409098189578    4.944681253661   -0.902143383421
 H    6.409098189578    4.944681253661    0.902143383421
 C    8.378231334444    1.513082468071    0.000000000000
 H    7.876846707936    0.540166440656    0.000000000000
 H    9.020539636613    1.609524098993   -0.886247465266
 H    9.020539636613    1.609524098993    0.886247465266
