23

 C   -4.226912606491    0.149298603799    0.000000000000
 C   -3.213862606491   -0.957941396201    0.000000000000
 O   -3.781282606491   -2.158361396201    0.000000000000
 C   -2.881252606491   -3.301731396201    0.000000000000
 O   -1.985012606491   -0.794891396201    0.000000000000
 H   -3.725522606491    1.122218603799    0.000000000000
 H   -4.869222606491    0.052858603799    0.886250000000
 H   -4.869222606491    0.052858603799   -0.886250000000
 H   -3.539852606491   -4.173741396201    0.000000000000
 H   -2.257782606491   -3.282311396201    0.902150000000
 H   -2.257782606491   -3.282311396201   -0.902150000000
NA    0.027097393509    0.010848603799    0.000000000000
 O    1.976598948942    0.791517346201    0.000000000000
 C    3.205448038029    0.954574577411    0.000000000000
 O    3.772868188047    2.154994314942    0.000000000000
 C    2.872833923415    3.298359276181    0.000000000000
 H    3.531428175995    4.170368383570    0.000000000000
 H    2.249369084404    3.278937268887   -0.902143383421
 H    2.249369084404    3.278937268887    0.902143383421
 C    4.218502229270   -0.152661516702    0.000000000000
 H    3.717117602762   -1.125577544117    0.000000000000
 H    4.860810531439   -0.056219885781   -0.886247465266
 H    4.860810531439   -0.056219885781    0.886247465266
