23

 C   -4.307269823695    0.117119933552    0.000000000000
 C   -3.294219823695   -0.990120066448    0.000000000000
 O   -3.861639823695   -2.190540066448    0.000000000000
 C   -2.961609823695   -3.333910066448    0.000000000000
 O   -2.065369823695   -0.827070066448    0.000000000000
 H   -3.805879823695    1.090039933552    0.000000000000
 H   -4.949579823695    0.020679933552    0.886250000000
 H   -4.949579823695    0.020679933552   -0.886250000000
 H   -3.620209823695   -4.205920066448    0.000000000000
 H   -2.338139823695   -3.314490066448    0.902150000000
 H   -2.338139823695   -3.314490066448   -0.902150000000
NA   -0.053259823695   -0.021330066448    0.000000000000
 O    2.081908546541    0.833688079993    0.000000000000
 C    3.310757635628    0.996745311203    0.000000000000
 O    3.878177785647    2.197165048734    0.000000000000
 C    2.978143521015    3.340530009972    0.000000000000
 H    3.636737773594    4.212539117361    0.000000000000
 H    2.354678682003    3.321108002679   -0.902143383421
 H    2.354678682003    3.321108002679    0.902143383421
 C    4.323811826870   -0.110490782910    0.000000000000
 H    3.822427200362   -1.083406810326    0.000000000000
 H    4.966120129038   -0.014049151989   -0.886247465266
 H    4.966120129038   -0.014049151989    0.886247465266
