23

 C   -4.387627040899    0.084941263306    0.000000000000
 C   -3.374577040899   -1.022298736694    0.000000000000
 O   -3.941997040899   -2.222718736694    0.000000000000
 C   -3.041967040899   -3.366088736694    0.000000000000
 O   -2.145727040899   -0.859248736694    0.000000000000
 H   -3.886237040899    1.057861263306    0.000000000000
 H   -5.029937040899   -0.011498736694    0.886250000000
 H   -5.029937040899   -0.011498736694   -0.886250000000
 H   -3.700567040899   -4.238098736694    0.000000000000
 H   -2.418497040899   -3.346668736694    0.902150000000
 H   -2.418497040899   -3.346668736694   -0.902150000000
NA   -0.133617040899   -0.053508736694    0.000000000000
 O    2.187218144140    0.875858813785    0.000000000000
 C    3.416067233227    1.038916044995    0.000000000000
 O    3.983487383246    2.239335782526    0.000000000000
 C    3.083453118614    3.382700743764    0.000000000000
 H    3.742047371193    4.254709851153    0.000000000000
 H    2.459988279603    3.363278736470   -0.902143383421
 H    2.459988279603    3.363278736470    0.902143383421
 C    4.429121424469   -0.068320049119    0.000000000000
 H    3.927736797961   -1.041236076534    0.000000000000
 H    5.071429726637    0.028121581803   -0.886247465266
 H    5.071429726637    0.028121581803    0.886247465266
