23

 C   -4.548341475307    0.020583922813    0.000000000000
 C   -3.535291475307   -1.086656077187    0.000000000000
 O   -4.102711475307   -2.287076077187    0.000000000000
 C   -3.202681475307   -3.430446077187    0.000000000000
 O   -2.306441475307   -0.923606077187    0.000000000000
 H   -4.046951475307    0.993503922813    0.000000000000
 H   -5.190651475307   -0.075856077187    0.886250000000
 H   -5.190651475307   -0.075856077187   -0.886250000000
 H   -3.861281475307   -4.302456077187    0.000000000000
 H   -2.579211475307   -3.411026077187    0.902150000000
 H   -2.579211475307   -3.411026077187   -0.902150000000
NA   -0.294331475307   -0.117866077187    0.000000000000
 O    2.397837339339    0.960200281368    0.000000000000
 C    3.626686428426    1.123257512578    0.000000000000
 O    4.194106578445    2.323677250109    0.000000000000
 C    3.294072313813    3.467042211348    0.000000000000
 H    3.952666566392    4.339051318737    0.000000000000
 H    2.670607474801    3.447620204054   -0.902143383421
 H    2.670607474801    3.447620204054    0.902143383421
 C    4.639740619668    0.016021418465    0.000000000000
 H    4.138355993160   -0.956894608951    0.000000000000
 H    5.282048921836    0.112463049386   -0.886247465266
 H    5.282048921836    0.112463049386    0.886247465266
