23

 C   -4.628698692511   -0.011594747434    0.000000000000
 C   -3.615648692511   -1.118834747434    0.000000000000
 O   -4.183068692511   -2.319254747434    0.000000000000
 C   -3.283038692511   -3.462624747434    0.000000000000
 O   -2.386798692511   -0.955784747434    0.000000000000
 H   -4.127308692511    0.961325252566    0.000000000000
 H   -5.271008692511   -0.108034747434    0.886250000000
 H   -5.271008692511   -0.108034747434   -0.886250000000
 H   -3.941638692511   -4.334634747434    0.000000000000
 H   -2.659568692511   -3.443204747434    0.902150000000
 H   -2.659568692511   -3.443204747434   -0.902150000000
NA   -0.374688692511   -0.150044747434    0.000000000000
 O    2.503146936938    1.002371015160    0.000000000000
 C    3.731996026025    1.165428246370    0.000000000000
 O    4.299416176044    2.365847983901    0.000000000000
 C    3.399381911412    3.509212945139    0.000000000000
 H    4.057976163991    4.381222052528    0.000000000000
 H    2.775917072401    3.489790937846   -0.902143383421
 H    2.775917072401    3.489790937846    0.902143383421
 C    4.745050217267    0.058192152256    0.000000000000
 H    4.243665590759   -0.914723875159    0.000000000000
 H    5.387358519435    0.154633783178   -0.886247465266
 H    5.387358519435    0.154633783178    0.886247465266
