23

 C   -4.909948952724   -0.124220093297    0.000000000000
 C   -3.896898952724   -1.231460093297    0.000000000000
 O   -4.464318952724   -2.431880093297    0.000000000000
 C   -3.564288952724   -3.575250093297    0.000000000000
 O   -2.668048952724   -1.068410093297    0.000000000000
 H   -4.408558952724    0.848699906703    0.000000000000
 H   -5.552258952724   -0.220660093297    0.886250000000
 H   -5.552258952724   -0.220660093297   -0.886250000000
 H   -4.222888952724   -4.447260093297    0.000000000000
 H   -2.940818952724   -3.555830093297    0.902150000000
 H   -2.940818952724   -3.555830093297   -0.902150000000
NA   -0.655938952724   -0.262670093297    0.000000000000
 O    2.871730528536    1.149968583431    0.000000000000
 C    4.100579617623    1.313025814641    0.000000000000
 O    4.667999767642    2.513445552172    0.000000000000
 C    3.767965503010    3.656810513410    0.000000000000
 H    4.426559755589    4.528819620799    0.000000000000
 H    3.144500663998    3.637388506117   -0.902143383421
 H    3.144500663998    3.637388506117    0.902143383421
 C    5.113633808865    0.205789720528    0.000000000000
 H    4.612249182357   -0.767126306888    0.000000000000
 H    5.755942111033    0.302231351449   -0.886247465266
 H    5.755942111033    0.302231351449    0.886247465266
