23

 C   -4.990306169928   -0.156398763543    0.000000000000
 C   -3.977256169928   -1.263638763543    0.000000000000
 O   -4.544676169928   -2.464058763543    0.000000000000
 C   -3.644646169928   -3.607428763543    0.000000000000
 O   -2.748406169928   -1.100588763543    0.000000000000
 H   -4.488916169928    0.816521236457    0.000000000000
 H   -5.632616169928   -0.252838763543    0.886250000000
 H   -5.632616169928   -0.252838763543   -0.886250000000
 H   -4.303246169928   -4.479438763543    0.000000000000
 H   -3.021176169928   -3.588008763543    0.902150000000
 H   -3.021176169928   -3.588008763543   -0.902150000000
NA   -0.736296169928   -0.294848763543    0.000000000000
 O    2.977040126135    1.192139317223    0.000000000000
 C    4.205889215222    1.355196548433    0.000000000000
 O    4.773309365241    2.555616285964    0.000000000000
 C    3.873275100609    3.698981247202    0.000000000000
 H    4.531869353188    4.570990354591    0.000000000000
 H    3.249810261598    3.679559239908   -0.902143383421
 H    3.249810261598    3.679559239908    0.902143383421
 C    5.218943406464    0.247960454319    0.000000000000
 H    4.717558779956   -0.724955573096    0.000000000000
 H    5.861251708632    0.344402085241   -0.886247465266
 H    5.861251708632    0.344402085241    0.886247465266
