23

 C   -5.070663387132   -0.188577433790    0.000000000000
 C   -4.057613387132   -1.295817433790    0.000000000000
 O   -4.625033387132   -2.496237433790    0.000000000000
 C   -3.725003387132   -3.639607433790    0.000000000000
 O   -2.828763387132   -1.132767433790    0.000000000000
 H   -4.569273387132    0.784342566210    0.000000000000
 H   -5.712973387132   -0.285017433790    0.886250000000
 H   -5.712973387132   -0.285017433790   -0.886250000000
 H   -4.383603387132   -4.511617433790    0.000000000000
 H   -3.101533387132   -3.620187433790    0.902150000000
 H   -3.101533387132   -3.620187433790   -0.902150000000
NA   -0.816653387132   -0.327027433790    0.000000000000
 O    3.082349723735    1.234310051014    0.000000000000
 C    4.311198812822    1.397367282225    0.000000000000
 O    4.878618962840    2.597787019755    0.000000000000
 C    3.978584698208    3.741151980994    0.000000000000
 H    4.637178950788    4.613161088383    0.000000000000
 H    3.355119859197    3.721729973700   -0.902143383421
 H    3.355119859197    3.721729973700    0.902143383421
 C    5.324253004063    0.290131188111    0.000000000000
 H    4.822868377555   -0.682784839304    0.000000000000
 H    5.966561306232    0.386572819032   -0.886247465266
 H    5.966561306232    0.386572819032    0.886247465266
