23

 C   -5.191199212937   -0.236845439160    0.000000000000
 C   -4.178149212937   -1.344085439160    0.000000000000
 O   -4.745569212937   -2.544505439160    0.000000000000
 C   -3.845539212937   -3.687875439160    0.000000000000
 O   -2.949299212937   -1.181035439160    0.000000000000
 H   -4.689809212937    0.736074560840    0.000000000000
 H   -5.833509212937   -0.333285439160    0.886250000000
 H   -5.833509212937   -0.333285439160   -0.886250000000
 H   -4.504139212937   -4.559885439160    0.000000000000
 H   -3.222069212937   -3.668455439160    0.902150000000
 H   -3.222069212937   -3.668455439160   -0.902150000000
NA   -0.937189212937   -0.375295439160    0.000000000000
 O    3.240314120134    1.297566151702    0.000000000000
 C    4.469163209221    1.460623382912    0.000000000000
 O    5.036583359239    2.661043120443    0.000000000000
 C    4.136549094607    3.804408081682    0.000000000000
 H    4.795143347187    4.676417189070    0.000000000000
 H    3.513084255596    3.784986074388   -0.902143383421
 H    3.513084255596    3.784986074388    0.902143383421
 C    5.482217400462    0.353387288799    0.000000000000
 H    4.980832773954   -0.619528738617    0.000000000000
 H    6.124525702631    0.449828919720   -0.886247465266
 H    6.124525702631    0.449828919720    0.886247465266
