23

 C   -5.231377821539   -0.252934774283    0.000000000000
 C   -4.218327821539   -1.360174774283    0.000000000000
 O   -4.785747821539   -2.560594774283    0.000000000000
 C   -3.885717821539   -3.703964774283    0.000000000000
 O   -2.989477821539   -1.197124774283    0.000000000000
 H   -4.729987821539    0.719985225717    0.000000000000
 H   -5.873687821539   -0.349374774283    0.886250000000
 H   -5.873687821539   -0.349374774283   -0.886250000000
 H   -4.544317821539   -4.575974774283    0.000000000000
 H   -3.262247821539   -3.684544774283    0.902150000000
 H   -3.262247821539   -3.684544774283   -0.902150000000
NA   -0.977367821539   -0.391384774283    0.000000000000
 O    3.292968918933    1.318651518598    0.000000000000
 C    4.521818008020    1.481708749808    0.000000000000
 O    5.089238158039    2.682128487339    0.000000000000
 C    4.189203893407    3.825493448577    0.000000000000
 H    4.847798145987    4.697502555966    0.000000000000
 H    3.565739054396    3.806071441284   -0.902143383421
 H    3.565739054396    3.806071441284    0.902143383421
 C    5.534872199262    0.374472655694    0.000000000000
 H    5.033487572754   -0.598443371721    0.000000000000
 H    6.177180501431    0.470914286616   -0.886247465266
 H    6.177180501431    0.470914286616    0.886247465266
