23

 C   -5.311735038743   -0.285113444530    0.000000000000
 C   -4.298685038743   -1.392353444530    0.000000000000
 O   -4.866105038743   -2.592773444530    0.000000000000
 C   -3.966075038743   -3.736143444530    0.000000000000
 O   -3.069835038743   -1.229303444530    0.000000000000
 H   -4.810345038743    0.687806555470    0.000000000000
 H   -5.954045038743   -0.381553444530    0.886250000000
 H   -5.954045038743   -0.381553444530   -0.886250000000
 H   -4.624675038743   -4.608153444530    0.000000000000
 H   -3.342605038743   -3.716723444530    0.902150000000
 H   -3.342605038743   -3.716723444530   -0.902150000000
NA   -1.057725038743   -0.423563444530    0.000000000000
 O    3.398278516533    1.360822252389    0.000000000000
 C    4.627127605620    1.523879483600    0.000000000000
 O    5.194547755638    2.724299221130    0.000000000000
 C    4.294513491006    3.867664182369    0.000000000000
 H    4.953107743586    4.739673289758    0.000000000000
 H    3.671048651995    3.848242175075   -0.902143383421
 H    3.671048651995    3.848242175075    0.902143383421
 C    5.640181796861    0.416643389486    0.000000000000
 H    5.138797170353   -0.556272637929    0.000000000000
 H    6.282490099030    0.513085020408   -0.886247465266
 H    6.282490099030    0.513085020408    0.886247465266
