23

 C   -5.432270864549   -0.333381449899    0.000000000000
 C   -4.419220864549   -1.440621449899    0.000000000000
 O   -4.986640864549   -2.641041449899    0.000000000000
 C   -4.086610864549   -3.784411449899    0.000000000000
 O   -3.190370864549   -1.277571449899    0.000000000000
 H   -4.930880864549    0.639538550101    0.000000000000
 H   -6.074580864549   -0.429821449899    0.886250000000
 H   -6.074580864549   -0.429821449899   -0.886250000000
 H   -4.745210864549   -4.656421449899    0.000000000000
 H   -3.463140864549   -3.764991449899    0.902150000000
 H   -3.463140864549   -3.764991449899   -0.902150000000
NA   -1.178260864549   -0.471831449899    0.000000000000
 O    3.556242912932    1.424078353077    0.000000000000
 C    4.785092002019    1.587135584287    0.000000000000
 O    5.352512152037    2.787555321818    0.000000000000
 C    4.452477887405    3.930920283057    0.000000000000
 H    5.111072139985    4.802929390446    0.000000000000
 H    3.829013048394    3.911498275763   -0.902143383421
 H    3.829013048394    3.911498275763    0.902143383421
 C    5.798146193260    0.479899490174    0.000000000000
 H    5.296761566752   -0.493016537241    0.000000000000
 H    6.440454495429    0.576341121095   -0.886247465266
 H    6.440454495429    0.576341121095    0.886247465266
