23

 C   -5.472449473151   -0.349470785023    0.000000000000
 C   -4.459399473151   -1.456710785023    0.000000000000
 O   -5.026819473151   -2.657130785023    0.000000000000
 C   -4.126789473151   -3.800500785023    0.000000000000
 O   -3.230549473151   -1.293660785023    0.000000000000
 H   -4.971059473151    0.623449214977    0.000000000000
 H   -6.114759473151   -0.445910785023    0.886250000000
 H   -6.114759473151   -0.445910785023   -0.886250000000
 H   -4.785389473151   -4.672510785023    0.000000000000
 H   -3.503319473151   -3.781080785023    0.902150000000
 H   -3.503319473151   -3.781080785023   -0.902150000000
NA   -1.218439473151   -0.487920785023    0.000000000000
 O    3.608897711731    1.445163719973    0.000000000000
 C    4.837746800818    1.608220951183    0.000000000000
 O    5.405166950837    2.808640688714    0.000000000000
 C    4.505132686205    3.952005649953    0.000000000000
 H    5.163726938785    4.824014757342    0.000000000000
 H    3.881667847194    3.932583642659   -0.902143383421
 H    3.881667847194    3.932583642659    0.902143383421
 C    5.850800992060    0.500984857070    0.000000000000
 H    5.349416365552   -0.471931170346    0.000000000000
 H    6.493109294229    0.597426487991   -0.886247465266
 H    6.493109294229    0.597426487991    0.886247465266
