23

 C   -5.512628081753   -0.365560120146    0.000000000000
 C   -4.499578081753   -1.472800120146    0.000000000000
 O   -5.066998081753   -2.673220120146    0.000000000000
 C   -4.166968081753   -3.816590120146    0.000000000000
 O   -3.270728081753   -1.309750120146    0.000000000000
 H   -5.011238081753    0.607359879854    0.000000000000
 H   -6.154938081753   -0.462000120146    0.886250000000
 H   -6.154938081753   -0.462000120146   -0.886250000000
 H   -4.825568081753   -4.688600120146    0.000000000000
 H   -3.543498081753   -3.797170120146    0.902150000000
 H   -3.543498081753   -3.797170120146   -0.902150000000
NA   -1.258618081753   -0.504010120146    0.000000000000
 O    3.661552510531    1.466249086869    0.000000000000
 C    4.890401599618    1.629306318079    0.000000000000
 O    5.457821749637    2.829726055610    0.000000000000
 C    4.557787485005    3.973091016849    0.000000000000
 H    5.216381737584    4.845100124237    0.000000000000
 H    3.934322645993    3.953669009555   -0.902143383421
 H    3.934322645993    3.953669009555    0.902143383421
 C    5.903455790860    0.522070223966    0.000000000000
 H    5.402071164352   -0.450845803450    0.000000000000
 H    6.545764093028    0.618511854887   -0.886247465266
 H    6.545764093028    0.618511854887    0.886247465266
