23

 C   -5.793878341966   -0.478185466009    0.000000000000
 C   -4.780828341966   -1.585425466009    0.000000000000
 O   -5.348248341966   -2.785845466009    0.000000000000
 C   -4.448218341966   -3.929215466009    0.000000000000
 O   -3.551978341966   -1.422375466009    0.000000000000
 H   -5.292488341966    0.494734533991    0.000000000000
 H   -6.436188341966   -0.574625466009    0.886250000000
 H   -6.436188341966   -0.574625466009   -0.886250000000
 H   -5.106818341966   -4.801225466009    0.000000000000
 H   -3.824748341966   -3.909795466009    0.902150000000
 H   -3.824748341966   -3.909795466009   -0.902150000000
NA   -1.539868341966   -0.616635466009    0.000000000000
 O    4.030136102129    1.613846655140    0.000000000000
 C    5.258985191216    1.776903886350    0.000000000000
 O    5.826405341234    2.977323623881    0.000000000000
 C    4.926371076602    4.120688585120    0.000000000000
 H    5.584965329182    4.992697692508    0.000000000000
 H    4.302906237591    4.101266577826   -0.902143383421
 H    4.302906237591    4.101266577826    0.902143383421
 C    6.272039382457    0.669667792237    0.000000000000
 H    5.770654755949   -0.303248235179    0.000000000000
 H    6.914347684626    0.766109423158   -0.886247465266
 H    6.914347684626    0.766109423158    0.886247465266
