23

 C   -5.874235559170   -0.510364136256    0.000000000000
 C   -4.861185559170   -1.617604136256    0.000000000000
 O   -5.428605559170   -2.818024136256    0.000000000000
 C   -4.528575559170   -3.961394136256    0.000000000000
 O   -3.632335559170   -1.454554136256    0.000000000000
 H   -5.372845559170    0.462555863744    0.000000000000
 H   -6.516545559170   -0.606804136256    0.886250000000
 H   -6.516545559170   -0.606804136256   -0.886250000000
 H   -5.187175559170   -4.833404136256    0.000000000000
 H   -3.905105559170   -3.941974136256    0.902150000000
 H   -3.905105559170   -3.941974136256   -0.902150000000
NA   -1.620225559170   -0.648814136256    0.000000000000
 O    4.135445699728    1.656017388932    0.000000000000
 C    5.364294788815    1.819074620142    0.000000000000
 O    5.931714938834    3.019494357673    0.000000000000
 C    5.031680674202    4.162859318911    0.000000000000
 H    5.690274926781    5.034868426300    0.000000000000
 H    4.408215835190    4.143437311618   -0.902143383421
 H    4.408215835190    4.143437311618    0.902143383421
 C    6.377348980057    0.711838526028    0.000000000000
 H    5.875964353549   -0.261077501387    0.000000000000
 H    7.019657282225    0.808280156950   -0.886247465266
 H    7.019657282225    0.808280156950    0.886247465266
