23

 C   -5.954592776374   -0.542542806502    0.000000000000
 C   -4.941542776374   -1.649782806502    0.000000000000
 O   -5.508962776374   -2.850202806502    0.000000000000
 C   -4.608932776374   -3.993572806502    0.000000000000
 O   -3.712692776374   -1.486732806502    0.000000000000
 H   -5.453202776374    0.430377193498    0.000000000000
 H   -6.596902776374   -0.638982806502    0.886250000000
 H   -6.596902776374   -0.638982806502   -0.886250000000
 H   -5.267532776374   -4.865582806502    0.000000000000
 H   -3.985462776374   -3.974152806502    0.902150000000
 H   -3.985462776374   -3.974152806502   -0.902150000000
NA   -1.700582776374   -0.680992806502    0.000000000000
 O    4.240755297328    1.698188122723    0.000000000000
 C    5.469604386415    1.861245353934    0.000000000000
 O    6.037024536433    3.061665091464    0.000000000000
 C    5.136990271801    4.205030052703    0.000000000000
 H    5.795584524381    5.077039160092    0.000000000000
 H    4.513525432790    4.185608045409   -0.902143383421
 H    4.513525432790    4.185608045409    0.902143383421
 C    6.482658577656    0.754009259820    0.000000000000
 H    5.981273951148   -0.218906767595    0.000000000000
 H    7.124966879825    0.850450890742   -0.886247465266
 H    7.124966879825    0.850450890742    0.886247465266
