23

 C   -6.155485819383   -0.622989482119    0.000000000000
 C   -5.142435819383   -1.730229482119    0.000000000000
 O   -5.709855819383   -2.930649482119    0.000000000000
 C   -4.809825819383   -4.074019482119    0.000000000000
 O   -3.913585819383   -1.567179482119    0.000000000000
 H   -5.654095819383    0.349930517881    0.000000000000
 H   -6.797795819383   -0.719429482119    0.886250000000
 H   -6.797795819383   -0.719429482119   -0.886250000000
 H   -5.468425819383   -4.946029482119    0.000000000000
 H   -4.186355819383   -4.054599482119    0.902150000000
 H   -4.186355819383   -4.054599482119   -0.902150000000
NA   -1.901475819383   -0.761439482119    0.000000000000
 O    4.504029291326    1.803614957203    0.000000000000
 C    5.732878380413    1.966672188413    0.000000000000
 O    6.300298530431    3.167091925944    0.000000000000
 C    5.400264265799    4.310456887182    0.000000000000
 H    6.058858518379    5.182465994571    0.000000000000
 H    4.776799426788    4.291034879889   -0.902143383421
 H    4.776799426788    4.291034879889    0.902143383421
 C    6.745932571654    0.859436094299    0.000000000000
 H    6.244547945146   -0.113479933116    0.000000000000
 H    7.388240873823    0.955877725221   -0.886247465266
 H    7.388240873823    0.955877725221    0.886247465266
