23

 C   -6.195664427985   -0.639078817242    0.000000000000
 C   -5.182614427985   -1.746318817242    0.000000000000
 O   -5.750034427985   -2.946738817242    0.000000000000
 C   -4.850004427985   -4.090108817242    0.000000000000
 O   -3.953764427985   -1.583268817242    0.000000000000
 H   -5.694274427985    0.333841182758    0.000000000000
 H   -6.837974427985   -0.735518817242    0.886250000000
 H   -6.837974427985   -0.735518817242   -0.886250000000
 H   -5.508604427985   -4.962118817242    0.000000000000
 H   -4.226534427985   -4.070688817242    0.902150000000
 H   -4.226534427985   -4.070688817242   -0.902150000000
NA   -1.941654427985   -0.777528817242    0.000000000000
 O    4.556684090126    1.824700324099    0.000000000000
 C    5.785533179213    1.987757555309    0.000000000000
 O    6.352953329231    3.188177292840    0.000000000000
 C    5.452919064599    4.331542254078    0.000000000000
 H    6.111513317179    5.203551361467    0.000000000000
 H    4.829454225588    4.312120246784   -0.902143383421
 H    4.829454225588    4.312120246784    0.902143383421
 C    6.798587370454    0.880521461195    0.000000000000
 H    6.297202743946   -0.092394566220    0.000000000000
 H    7.440895672623    0.976963092117   -0.886247465266
 H    7.440895672623    0.976963092117    0.886247465266
