23

 C   -6.235843036587   -0.655168152365    0.000000000000
 C   -5.222793036587   -1.762408152365    0.000000000000
 O   -5.790213036587   -2.962828152365    0.000000000000
 C   -4.890183036587   -4.106198152365    0.000000000000
 O   -3.993943036587   -1.599358152365    0.000000000000
 H   -5.734453036587    0.317751847635    0.000000000000
 H   -6.878153036587   -0.751608152365    0.886250000000
 H   -6.878153036587   -0.751608152365   -0.886250000000
 H   -5.548783036587   -4.978208152365    0.000000000000
 H   -4.266713036587   -4.086778152365    0.902150000000
 H   -4.266713036587   -4.086778152365   -0.902150000000
NA   -1.981833036587   -0.793618152365    0.000000000000
 O    4.609338888925    1.845785690994    0.000000000000
 C    5.838187978012    2.008842922205    0.000000000000
 O    6.405608128031    3.209262659735    0.000000000000
 C    5.505573863399    4.352627620974    0.000000000000
 H    6.164168115978    5.224636728363    0.000000000000
 H    4.882109024387    4.333205613680   -0.902143383421
 H    4.882109024387    4.333205613680    0.902143383421
 C    6.851242169254    0.901606828091    0.000000000000
 H    6.349857542746   -0.071309199324    0.000000000000
 H    7.493550471422    0.998048459013   -0.886247465266
 H    7.493550471422    0.998048459013    0.886247465266
