23

 C   -6.316200253791   -0.687346822612    0.000000000000
 C   -5.303150253791   -1.794586822612    0.000000000000
 O   -5.870570253791   -2.995006822612    0.000000000000
 C   -4.970540253791   -4.138376822612    0.000000000000
 O   -4.074300253791   -1.631536822612    0.000000000000
 H   -5.814810253791    0.285573177388    0.000000000000
 H   -6.958510253791   -0.783786822612    0.886250000000
 H   -6.958510253791   -0.783786822612   -0.886250000000
 H   -5.629140253791   -5.010386822612    0.000000000000
 H   -4.347070253791   -4.118956822612    0.902150000000
 H   -4.347070253791   -4.118956822612   -0.902150000000
NA   -2.062190253791   -0.825796822612    0.000000000000
 O    4.714648486525    1.887956424786    0.000000000000
 C    5.943497575612    2.051013655997    0.000000000000
 O    6.510917725630    3.251433393527    0.000000000000
 C    5.610883460998    4.394798354766    0.000000000000
 H    6.269477713578    5.266807462155    0.000000000000
 H    4.987418621987    4.375376347472   -0.902143383421
 H    4.987418621987    4.375376347472    0.902143383421
 C    6.956551766853    0.943777561883    0.000000000000
 H    6.455167140345   -0.029138465532    0.000000000000
 H    7.598860069022    1.040219192804   -0.886247465266
 H    7.598860069022    1.040219192804    0.886247465266
