23

 C   -6.396557470995   -0.719525492858    0.000000000000
 C   -5.383507470995   -1.826765492858    0.000000000000
 O   -5.950927470995   -3.027185492858    0.000000000000
 C   -5.050897470995   -4.170555492858    0.000000000000
 O   -4.154657470995   -1.663715492858    0.000000000000
 H   -5.895167470995    0.253394507142    0.000000000000
 H   -7.038867470995   -0.815965492858    0.886250000000
 H   -7.038867470995   -0.815965492858   -0.886250000000
 H   -5.709497470995   -5.042565492858    0.000000000000
 H   -4.427427470995   -4.151135492858    0.902150000000
 H   -4.427427470995   -4.151135492858   -0.902150000000
NA   -2.142547470995   -0.857975492858    0.000000000000
 O    4.819958084124    1.930127158578    0.000000000000
 C    6.048807173211    2.093184389788    0.000000000000
 O    6.616227323229    3.293604127319    0.000000000000
 C    5.716193058597    4.436969088558    0.000000000000
 H    6.374787311177    5.308978195947    0.000000000000
 H    5.092728219586    4.417547081264   -0.902143383421
 H    5.092728219586    4.417547081264    0.902143383421
 C    7.061861364452    0.985948295675    0.000000000000
 H    6.560476737944    0.013032268259    0.000000000000
 H    7.704169666621    1.082389926596   -0.886247465266
 H    7.704169666621    1.082389926596    0.886247465266
