23

 C   -6.476914688198   -0.751704163105    0.000000000000
 C   -5.463864688198   -1.858944163105    0.000000000000
 O   -6.031284688198   -3.059364163105    0.000000000000
 C   -5.131254688198   -4.202734163105    0.000000000000
 O   -4.235014688198   -1.695894163105    0.000000000000
 H   -5.975524688198    0.221215836895    0.000000000000
 H   -7.119224688198   -0.848144163105    0.886250000000
 H   -7.119224688198   -0.848144163105   -0.886250000000
 H   -5.789854688198   -5.074744163105    0.000000000000
 H   -4.507784688198   -4.183314163105    0.902150000000
 H   -4.507784688198   -4.183314163105   -0.902150000000
NA   -2.222904688198   -0.890154163105    0.000000000000
 O    4.925267681723    1.972297892370    0.000000000000
 C    6.154116770810    2.135355123580    0.000000000000
 O    6.721536920829    3.335774861111    0.000000000000
 C    5.821502656197    4.479139822349    0.000000000000
 H    6.480096908776    5.351148929738    0.000000000000
 H    5.198037817186    4.459717815056   -0.902143383421
 H    5.198037817186    4.459717815056    0.902143383421
 C    7.167170962052    1.028119029466    0.000000000000
 H    6.665786335544    0.055203002051    0.000000000000
 H    7.809479264220    1.124560660388   -0.886247465266
 H    7.809479264220    1.124560660388    0.886247465266
