23

 C   -6.637629122606   -0.816061503598    0.000000000000
 C   -5.624579122606   -1.923301503598    0.000000000000
 O   -6.191999122606   -3.123721503598    0.000000000000
 C   -5.291969122606   -4.267091503598    0.000000000000
 O   -4.395729122606   -1.760251503598    0.000000000000
 H   -6.136239122606    0.156858496402    0.000000000000
 H   -7.279939122606   -0.912501503598    0.886250000000
 H   -7.279939122606   -0.912501503598   -0.886250000000
 H   -5.950569122606   -5.139101503598    0.000000000000
 H   -4.668499122606   -4.247671503598    0.902150000000
 H   -4.668499122606   -4.247671503598   -0.902150000000
NA   -2.383619122606   -0.954511503598    0.000000000000
 O    5.135886876922    2.056639359953    0.000000000000
 C    6.364735966009    2.219696591164    0.000000000000
 O    6.932156116027    3.420116328694    0.000000000000
 C    6.032121851395    4.563481289933    0.000000000000
 H    6.690716103975    5.435490397322    0.000000000000
 H    5.408657012384    4.544059282639   -0.902143383421
 H    5.408657012384    4.544059282639    0.902143383421
 C    7.377790157250    1.112460497050    0.000000000000
 H    6.876405530742    0.139544469635    0.000000000000
 H    8.020098459419    1.208902127971   -0.886247465266
 H    8.020098459419    1.208902127971    0.886247465266
