23

 C   -6.677807731208   -0.832150838721    0.000000000000
 C   -5.664757731208   -1.939390838721    0.000000000000
 O   -6.232177731208   -3.139810838721    0.000000000000
 C   -5.332147731208   -4.283180838721    0.000000000000
 O   -4.435907731208   -1.776340838721    0.000000000000
 H   -6.176417731208    0.140769161279    0.000000000000
 H   -7.320117731208   -0.928590838721    0.886250000000
 H   -7.320117731208   -0.928590838721   -0.886250000000
 H   -5.990747731208   -5.155190838721    0.000000000000
 H   -4.708677731208   -4.263760838721    0.902150000000
 H   -4.708677731208   -4.263760838721   -0.902150000000
NA   -2.423797731208   -0.970600838721    0.000000000000
 O    5.188541675722    2.077724726849    0.000000000000
 C    6.417390764809    2.240781958059    0.000000000000
 O    6.984810914827    3.441201695590    0.000000000000
 C    6.084776650195    4.584566656829    0.000000000000
 H    6.743370902775    5.456575764218    0.000000000000
 H    5.461311811184    4.565144649535   -0.902143383421
 H    5.461311811184    4.565144649535    0.902143383421
 C    7.430444956050    1.133545863946    0.000000000000
 H    6.929060329542    0.160629836531    0.000000000000
 H    8.072753258219    1.229987494867   -0.886247465266
 H    8.072753258219    1.229987494867    0.886247465266
