23

 C   -6.717986339810   -0.848240173844    0.000000000000
 C   -5.704936339810   -1.955480173844    0.000000000000
 O   -6.272356339810   -3.155900173844    0.000000000000
 C   -5.372326339810   -4.299270173844    0.000000000000
 O   -4.476086339810   -1.792430173844    0.000000000000
 H   -6.216596339810    0.124679826156    0.000000000000
 H   -7.360296339810   -0.944680173844    0.886250000000
 H   -7.360296339810   -0.944680173844   -0.886250000000
 H   -6.030926339810   -5.171280173844    0.000000000000
 H   -4.748856339810   -4.279850173844    0.902150000000
 H   -4.748856339810   -4.279850173844   -0.902150000000
NA   -2.463976339810   -0.986690173844    0.000000000000
 O    5.241196474521    2.098810093745    0.000000000000
 C    6.470045563608    2.261867324955    0.000000000000
 O    7.037465713627    3.462287062486    0.000000000000
 C    6.137431448995    4.605652023725    0.000000000000
 H    6.796025701574    5.477661131113    0.000000000000
 H    5.513966609984    4.586230016431   -0.902143383421
 H    5.513966609984    4.586230016431    0.902143383421
 C    7.483099754850    1.154631230842    0.000000000000
 H    6.981715128342    0.181715203426    0.000000000000
 H    8.125408057018    1.251072861763   -0.886247465266
 H    8.125408057018    1.251072861763    0.886247465266
