23

 C   -6.798343557014   -0.880418844091    0.000000000000
 C   -5.785293557014   -1.987658844091    0.000000000000
 O   -6.352713557014   -3.188078844091    0.000000000000
 C   -5.452683557014   -4.331448844091    0.000000000000
 O   -4.556443557014   -1.824608844091    0.000000000000
 H   -6.296953557014    0.092501155909    0.000000000000
 H   -7.440653557014   -0.976858844091    0.886250000000
 H   -7.440653557014   -0.976858844091   -0.886250000000
 H   -6.111283557014   -5.203458844091    0.000000000000
 H   -4.829213557014   -4.312028844091    0.902150000000
 H   -4.829213557014   -4.312028844091   -0.902150000000
NA   -2.544333557014   -1.018868844091    0.000000000000
 O    5.346506072121    2.140980827537    0.000000000000
 C    6.575355161208    2.304038058747    0.000000000000
 O    7.142775311226    3.504457796278    0.000000000000
 C    6.242741046594    4.647822757516    0.000000000000
 H    6.901335299174    5.519831864905    0.000000000000
 H    5.619276207583    4.628400750222   -0.902143383421
 H    5.619276207583    4.628400750222    0.902143383421
 C    7.588409352449    1.196801964633    0.000000000000
 H    7.087024725941    0.223885937218    0.000000000000
 H    8.230717654618    1.293243595555   -0.886247465266
 H    8.230717654618    1.293243595555    0.886247465266
