23

 C   -6.918879382819   -0.928686849461    0.000000000000
 C   -5.905829382819   -2.035926849461    0.000000000000
 O   -6.473249382819   -3.236346849461    0.000000000000
 C   -5.573219382819   -4.379716849461    0.000000000000
 O   -4.676979382819   -1.872876849461    0.000000000000
 H   -6.417489382819    0.044233150539    0.000000000000
 H   -7.561189382819   -1.025126849461    0.886250000000
 H   -7.561189382819   -1.025126849461   -0.886250000000
 H   -6.231819382819   -5.251726849461    0.000000000000
 H   -4.949749382819   -4.360296849461    0.902150000000
 H   -4.949749382819   -4.360296849461   -0.902150000000
NA   -2.664869382819   -1.067136849461    0.000000000000
 O    5.504470468520    2.204236928224    0.000000000000
 C    6.733319557607    2.367294159435    0.000000000000
 O    7.300739707625    3.567713896965    0.000000000000
 C    6.400705442993    4.711078858204    0.000000000000
 H    7.059299695573    5.583087965593    0.000000000000
 H    5.777240603982    4.691656850910   -0.902143383421
 H    5.777240603982    4.691656850910    0.902143383421
 C    7.746373748848    1.260058065321    0.000000000000
 H    7.244989122340    0.287142037906    0.000000000000
 H    8.388682051017    1.356499696242   -0.886247465266
 H    8.388682051017    1.356499696242    0.886247465266
