23

 C   -7.119772425829   -1.009133525077    0.000000000000
 C   -6.106722425829   -2.116373525077    0.000000000000
 O   -6.674142425829   -3.316793525077    0.000000000000
 C   -5.774112425829   -4.460163525077    0.000000000000
 O   -4.877872425829   -1.953323525077    0.000000000000
 H   -6.618382425829   -0.036213525077    0.000000000000
 H   -7.762082425829   -1.105573525077    0.886250000000
 H   -7.762082425829   -1.105573525077   -0.886250000000
 H   -6.432712425829   -5.332173525077    0.000000000000
 H   -5.150642425829   -4.440743525077    0.902150000000
 H   -5.150642425829   -4.440743525077   -0.902150000000
NA   -2.865762425829   -1.147583525077    0.000000000000
 O    5.767744462518    2.309663762704    0.000000000000
 C    6.996593551605    2.472720993914    0.000000000000
 O    7.564013701623    3.673140731445    0.000000000000
 C    6.663979436991    4.816505692683    0.000000000000
 H    7.322573689571    5.688514800072    0.000000000000
 H    6.040514597980    4.797083685389   -0.902143383421
 H    6.040514597980    4.797083685389    0.902143383421
 C    8.009647742846    1.365484899800    0.000000000000
 H    7.508263116338    0.392568872385    0.000000000000
 H    8.651956045015    1.461926530722   -0.886247465266
 H    8.651956045015    1.461926530722    0.886247465266
