23

 C   -7.200129643033   -1.041312195324    0.000000000000
 C   -6.187079643033   -2.148552195324    0.000000000000
 O   -6.754499643033   -3.348972195324    0.000000000000
 C   -5.854469643033   -4.492342195324    0.000000000000
 O   -4.958229643033   -1.985502195324    0.000000000000
 H   -6.698739643033   -0.068392195324    0.000000000000
 H   -7.842439643033   -1.137752195324    0.886250000000
 H   -7.842439643033   -1.137752195324   -0.886250000000
 H   -6.513069643033   -5.364352195324    0.000000000000
 H   -5.230999643033   -4.472922195324    0.902150000000
 H   -5.230999643033   -4.472922195324   -0.902150000000
NA   -2.946119643033   -1.179762195324    0.000000000000
 O    5.873054060117    2.351834496495    0.000000000000
 C    7.101903149204    2.514891727706    0.000000000000
 O    7.669323299223    3.715311465236    0.000000000000
 C    6.769289034591    4.858676426475    0.000000000000
 H    7.427883287170    5.730685533864    0.000000000000
 H    6.145824195580    4.839254419181   -0.902143383421
 H    6.145824195580    4.839254419181    0.902143383421
 C    8.114957340446    1.407655633592    0.000000000000
 H    7.613572713938    0.434739606177    0.000000000000
 H    8.757265642614    1.504097264513   -0.886247465266
 H    8.757265642614    1.504097264513    0.886247465266
