23

 C   -7.280486860237   -1.073490865570    0.000000000000
 C   -6.267436860237   -2.180730865570    0.000000000000
 O   -6.834856860237   -3.381150865570    0.000000000000
 C   -5.934826860237   -4.524520865570    0.000000000000
 O   -5.038586860237   -2.017680865570    0.000000000000
 H   -6.779096860237   -0.100570865570    0.000000000000
 H   -7.922796860237   -1.169930865570    0.886250000000
 H   -7.922796860237   -1.169930865570   -0.886250000000
 H   -6.593426860237   -5.396530865570    0.000000000000
 H   -5.311356860237   -4.505100865570    0.902150000000
 H   -5.311356860237   -4.505100865570   -0.902150000000
NA   -3.026476860237   -1.211940865570    0.000000000000
 O    5.978363657717    2.394005230287    0.000000000000
 C    7.207212746804    2.557062461497    0.000000000000
 O    7.774632896822    3.757482199028    0.000000000000
 C    6.874598632190    4.900847160267    0.000000000000
 H    7.533192884770    5.772856267656    0.000000000000
 H    6.251133793179    4.881425152973   -0.902143383421
 H    6.251133793179    4.881425152973    0.902143383421
 C    8.220266938045    1.449826367384    0.000000000000
 H    7.718882311537    0.476910339969    0.000000000000
 H    8.862575240214    1.546267998305   -0.886247465266
 H    8.862575240214    1.546267998305    0.886247465266
