12

 C   -1.880085485625    1.181584481781    0.000000000000
 C   -0.767743485625    0.162106481781    0.000000000000
 O   -1.272074485625   -1.104346518219    0.000000000000
 C   -0.257608485625   -2.138085518219    0.000000000000
 O    0.429896514375    0.406599481781    0.000000000000
 H   -1.447515485625    2.188594481781    0.000000000000
 H   -2.512422485625    1.039012481781    0.888615000000
 H   -2.512422485625    1.039012481781   -0.888615000000
 H   -0.811705485625   -3.083209518219    0.000000000000
 H    0.372186514375   -2.051786518219    0.896190000000
 H    0.372186514375   -2.051786518219   -0.896190000000
 K    1.409688281783    0.606619712058    0.000000000000
