12

 C   -1.947653900986    1.167790683497    0.000000000000
 C   -0.835311900986    0.148312683497    0.000000000000
 O   -1.339642900986   -1.118140316503    0.000000000000
 C   -0.325176900986   -2.151879316503    0.000000000000
 O    0.362328099014    0.392805683497    0.000000000000
 H   -1.515083900986    2.174800683497    0.000000000000
 H   -2.579990900986    1.025218683497    0.888615000000
 H   -2.579990900986    1.025218683497   -0.888615000000
 H   -0.879273900986   -3.097003316503    0.000000000000
 H    0.304618099014   -2.065580316503    0.896190000000
 H    0.304618099014   -2.065580316503   -0.896190000000
 K    1.538078219903    0.632829959830    0.000000000000
