12

 C   -1.981438108667    1.160893784355    0.000000000000
 C   -0.869096108667    0.141415784355    0.000000000000
 O   -1.373427108667   -1.125037215645    0.000000000000
 C   -0.358961108667   -2.158776215645    0.000000000000
 O    0.328543891333    0.385908784355    0.000000000000
 H   -1.548868108667    2.167903784355    0.000000000000
 H   -2.613775108667    1.018321784355    0.888615000000
 H   -2.613775108667    1.018321784355   -0.888615000000
 H   -0.913058108667   -3.103900215645    0.000000000000
 H    0.270833891333   -2.072477215645    0.896190000000
 H    0.270833891333   -2.072477215645   -0.896190000000
 K    1.602273188963    0.645935083715    0.000000000000
