12

 C   -2.049006524029    1.147099986071    0.000000000000
 C   -0.936664524029    0.127621986071    0.000000000000
 O   -1.440995524029   -1.138831013929    0.000000000000
 C   -0.426529524029   -2.172570013929    0.000000000000
 O    0.260975475971    0.372114986071    0.000000000000
 H   -1.616436524029    2.154109986071    0.000000000000
 H   -2.681343524029    1.004527986071    0.888615000000
 H   -2.681343524029    1.004527986071   -0.888615000000
 H   -0.980626524029   -3.117694013929    0.000000000000
 H    0.203265475971   -2.086271013929    0.896190000000
 H    0.203265475971   -2.086271013929   -0.896190000000
 K    1.730663127083    0.672145331486    0.000000000000
