12

 C   -2.116574939390    1.133306187787    0.000000000000
 C   -1.004232939390    0.113828187787    0.000000000000
 O   -1.508563939390   -1.152624812213    0.000000000000
 C   -0.494097939390   -2.186363812213    0.000000000000
 O    0.193407060610    0.358321187787    0.000000000000
 H   -1.684004939390    2.140316187787    0.000000000000
 H   -2.748911939390    0.990734187787    0.888615000000
 H   -2.748911939390    0.990734187787   -0.888615000000
 H   -1.048194939390   -3.131487812213    0.000000000000
 H    0.135697060610   -2.100064812213    0.896190000000
 H    0.135697060610   -2.100064812213   -0.896190000000
 K    1.859053065203    0.698355579258    0.000000000000
