12

 C   -2.217927562432    1.112615490361    0.000000000000
 C   -1.105585562432    0.093137490361    0.000000000000
 O   -1.609916562432   -1.173315509639    0.000000000000
 C   -0.595450562432   -2.207054509639    0.000000000000
 O    0.092054437568    0.337630490361    0.000000000000
 H   -1.785357562432    2.119625490361    0.000000000000
 H   -2.850264562432    0.970043490361    0.888615000000
 H   -2.850264562432    0.970043490361   -0.888615000000
 H   -1.149547562432   -3.152178509639    0.000000000000
 H    0.034344437568   -2.120755509639    0.896190000000
 H    0.034344437568   -2.120755509639   -0.896190000000
 K    2.051637972383    0.737670950915    0.000000000000
