12

 C   -2.319280185474    1.091924792935    0.000000000000
 C   -1.206938185474    0.072446792935    0.000000000000
 O   -1.711269185474   -1.194006207065    0.000000000000
 C   -0.696803185474   -2.227745207065    0.000000000000
 O   -0.009298185474    0.316939792935    0.000000000000
 H   -1.886710185474    2.098934792935    0.000000000000
 H   -2.951617185474    0.949352792935    0.888615000000
 H   -2.951617185474    0.949352792935   -0.888615000000
 H   -1.250900185474   -3.172869207065    0.000000000000
 H   -0.067008185474   -2.141446207065    0.896190000000
 H   -0.067008185474   -2.141446207065   -0.896190000000
 K    2.244222879563    0.776986322572    0.000000000000
