12

 C   -2.386848600836    1.078130994651    0.000000000000
 C   -1.274506600836    0.058652994651    0.000000000000
 O   -1.778837600836   -1.207800005349    0.000000000000
 C   -0.764371600836   -2.241539005349    0.000000000000
 O   -0.076866600836    0.303145994651    0.000000000000
 H   -1.954278600836    2.085140994651    0.000000000000
 H   -3.019185600836    0.935558994651    0.888615000000
 H   -3.019185600836    0.935558994651   -0.888615000000
 H   -1.318468600836   -3.186663005349    0.000000000000
 H   -0.134576600836   -2.155240005349    0.896190000000
 H   -0.134576600836   -2.155240005349   -0.896190000000
 K    2.372612817684    0.803196570343    0.000000000000
