12

 C   -2.420632808516    1.071234095509    0.000000000000
 C   -1.308290808516    0.051756095509    0.000000000000
 O   -1.812621808516   -1.214696904491    0.000000000000
 C   -0.798155808516   -2.248435904491    0.000000000000
 O   -0.110650808516    0.296249095509    0.000000000000
 H   -1.988062808516    2.078244095509    0.000000000000
 H   -3.052969808516    0.928662095509    0.888615000000
 H   -3.052969808516    0.928662095509   -0.888615000000
 H   -1.352252808516   -3.193559904491    0.000000000000
 H   -0.168360808516   -2.162136904491    0.896190000000
 H   -0.168360808516   -2.162136904491   -0.896190000000
 K    2.436807786744    0.816301694229    0.000000000000
