12

 C   -2.521985431559    1.050543398082    0.000000000000
 C   -1.409643431559    0.031065398082    0.000000000000
 O   -1.913974431559   -1.235387601918    0.000000000000
 C   -0.899508431559   -2.269126601918    0.000000000000
 O   -0.212003431559    0.275558398082    0.000000000000
 H   -2.089415431559    2.057553398082    0.000000000000
 H   -3.154322431559    0.907971398082    0.888615000000
 H   -3.154322431559    0.907971398082   -0.888615000000
 H   -1.453605431559   -3.214250601918    0.000000000000
 H   -0.269713431559   -2.182827601918    0.896190000000
 H   -0.269713431559   -2.182827601918   -0.896190000000
 K    2.629392693924    0.855617065885    0.000000000000
