12

 C   -2.555769639239    1.043646498940    0.000000000000
 C   -1.443427639239    0.024168498940    0.000000000000
 O   -1.947758639239   -1.242284501060    0.000000000000
 C   -0.933292639239   -2.276023501060    0.000000000000
 O   -0.245787639239    0.268661498940    0.000000000000
 H   -2.123199639239    2.050656498940    0.000000000000
 H   -3.188106639239    0.901074498940    0.888615000000
 H   -3.188106639239    0.901074498940   -0.888615000000
 H   -1.487389639239   -3.221147501060    0.000000000000
 H   -0.303497639239   -2.189724501060    0.896190000000
 H   -0.303497639239   -2.189724501060   -0.896190000000
 K    2.693587662984    0.868722189771    0.000000000000
