12

 C   -2.589553846920    1.036749599798    0.000000000000
 C   -1.477211846920    0.017271599798    0.000000000000
 O   -1.981542846920   -1.249181400202    0.000000000000
 C   -0.967076846920   -2.282920400202    0.000000000000
 O   -0.279571846920    0.261764599798    0.000000000000
 H   -2.156983846920    2.043759599798    0.000000000000
 H   -3.221890846920    0.894177599798    0.888615000000
 H   -3.221890846920    0.894177599798   -0.888615000000
 H   -1.521173846920   -3.228044400202    0.000000000000
 H   -0.337281846920   -2.196621400202    0.896190000000
 H   -0.337281846920   -2.196621400202   -0.896190000000
 K    2.757782632044    0.881827313657    0.000000000000
