12

 C   -2.690906469962    1.016058902372    0.000000000000
 C   -1.578564469962   -0.003419097628    0.000000000000
 O   -2.082895469962   -1.269872097628    0.000000000000
 C   -1.068429469962   -2.303611097628    0.000000000000
 O   -0.380924469962    0.241073902372    0.000000000000
 H   -2.258336469962    2.023068902372    0.000000000000
 H   -3.323243469962    0.873486902372    0.888615000000
 H   -3.323243469962    0.873486902372   -0.888615000000
 H   -1.622526469962   -3.248735097628    0.000000000000
 H   -0.438634469962   -2.217312097628    0.896190000000
 H   -0.438634469962   -2.217312097628   -0.896190000000
 K    2.950367539224    0.921142685314    0.000000000000
