12

 C   -2.758474885324    1.002265104088    0.000000000000
 C   -1.646132885324   -0.017212895912    0.000000000000
 O   -2.150463885324   -1.283665895912    0.000000000000
 C   -1.135997885324   -2.317404895912    0.000000000000
 O   -0.448492885324    0.227280104088    0.000000000000
 H   -2.325904885324    2.009275104088    0.000000000000
 H   -3.390811885324    0.859693104088    0.888615000000
 H   -3.390811885324    0.859693104088   -0.888615000000
 H   -1.690094885324   -3.262528895912    0.000000000000
 H   -0.506202885324   -2.231105895912    0.896190000000
 H   -0.506202885324   -2.231105895912   -0.896190000000
 K    3.078757477344    0.947352933085    0.000000000000
