12

 C   -2.792259093004    0.995368204946    0.000000000000
 C   -1.679917093004   -0.024109795054    0.000000000000
 O   -2.184248093004   -1.290562795054    0.000000000000
 C   -1.169782093004   -2.324301795054    0.000000000000
 O   -0.482277093004    0.220383204946    0.000000000000
 H   -2.359689093004    2.002378204946    0.000000000000
 H   -3.424596093004    0.852796204946    0.888615000000
 H   -3.424596093004    0.852796204946   -0.888615000000
 H   -1.723879093004   -3.269425795054    0.000000000000
 H   -0.539987093004   -2.238002795054    0.896190000000
 H   -0.539987093004   -2.238002795054   -0.896190000000
 K    3.142952446404    0.960458056971    0.000000000000
