12

 C   -2.859827508366    0.981574406662    0.000000000000
 C   -1.747485508366   -0.037903593338    0.000000000000
 O   -2.251816508366   -1.304356593338    0.000000000000
 C   -1.237350508366   -2.338095593338    0.000000000000
 O   -0.549845508366    0.206589406662    0.000000000000
 H   -2.427257508366    1.988584406662    0.000000000000
 H   -3.492164508366    0.839002406662    0.888615000000
 H   -3.492164508366    0.839002406662   -0.888615000000
 H   -1.791447508366   -3.283219593338    0.000000000000
 H   -0.607555508366   -2.251796593338    0.896190000000
 H   -0.607555508366   -2.251796593338   -0.896190000000
 K    3.271342384524    0.986668304742    0.000000000000
