12

 C   -2.893611716046    0.974677507520    0.000000000000
 C   -1.781269716046   -0.044800492480    0.000000000000
 O   -2.285600716046   -1.311253492480    0.000000000000
 C   -1.271134716046   -2.344992492480    0.000000000000
 O   -0.583629716046    0.199692507520    0.000000000000
 H   -2.461041716046    1.981687507520    0.000000000000
 H   -3.525948716046    0.832105507520    0.888615000000
 H   -3.525948716046    0.832105507520   -0.888615000000
 H   -1.825231716046   -3.290116492480    0.000000000000
 H   -0.641339716046   -2.258693492480    0.896190000000
 H   -0.641339716046   -2.258693492480   -0.896190000000
 K    3.335537353584    0.999773428628    0.000000000000
