12

 C   -3.062532754450    0.940193011810    0.000000000000
 C   -1.950190754450   -0.079284988190    0.000000000000
 O   -2.454521754450   -1.345737988190    0.000000000000
 C   -1.440055754450   -2.379476988190    0.000000000000
 O   -0.752550754450    0.165208011810    0.000000000000
 H   -2.629962754450    1.947203011810    0.000000000000
 H   -3.694869754450    0.797621011810    0.888615000000
 H   -3.694869754450    0.797621011810   -0.888615000000
 H   -1.994152754450   -3.324600988190    0.000000000000
 H   -0.810260754450   -2.293177988190    0.896190000000
 H   -0.810260754450   -2.293177988190   -0.896190000000
 K    3.656512198885    1.065299048056    0.000000000000
