12

 C   -3.096316962131    0.933296112668    0.000000000000
 C   -1.983974962131   -0.086181887332    0.000000000000
 O   -2.488305962131   -1.352634887332    0.000000000000
 C   -1.473839962131   -2.386373887332    0.000000000000
 O   -0.786334962131    0.158311112668    0.000000000000
 H   -2.663746962131    1.940306112668    0.000000000000
 H   -3.728653962131    0.790724112668    0.888615000000
 H   -3.728653962131    0.790724112668   -0.888615000000
 H   -2.027936962131   -3.331497887332    0.000000000000
 H   -0.844044962131   -2.300074887332    0.896190000000
 H   -0.844044962131   -2.300074887332   -0.896190000000
 K    3.720707167945    1.078404171941    0.000000000000
