12

 C   -3.163885377492    0.919502314384    0.000000000000
 C   -2.051543377492   -0.099975685616    0.000000000000
 O   -2.555874377492   -1.366428685616    0.000000000000
 C   -1.541408377492   -2.400167685616    0.000000000000
 O   -0.853903377492    0.144517314384    0.000000000000
 H   -2.731315377492    1.926512314384    0.000000000000
 H   -3.796222377492    0.776930314384    0.888615000000
 H   -3.796222377492    0.776930314384   -0.888615000000
 H   -2.095505377492   -3.345291685616    0.000000000000
 H   -0.911613377492   -2.313868685616    0.896190000000
 H   -0.911613377492   -2.313868685616   -0.896190000000
 K    3.849097106065    1.104614419713    0.000000000000
