12

 C   -3.197669585173    0.912605415242    0.000000000000
 C   -2.085327585173   -0.106872584758    0.000000000000
 O   -2.589658585173   -1.373325584758    0.000000000000
 C   -1.575192585173   -2.407064584758    0.000000000000
 O   -0.887687585173    0.137620415242    0.000000000000
 H   -2.765099585173    1.919615415242    0.000000000000
 H   -3.830006585173    0.770033415242    0.888615000000
 H   -3.830006585173    0.770033415242   -0.888615000000
 H   -2.129289585173   -3.352188584758    0.000000000000
 H   -0.945397585173   -2.320765584758    0.896190000000
 H   -0.945397585173   -2.320765584758   -0.896190000000
 K    3.913292075125    1.117719543598    0.000000000000
