12

 C   -3.400374831257    0.871224020389    0.000000000000
 C   -2.288032831257   -0.148253979611    0.000000000000
 O   -2.792363831257   -1.414706979611    0.000000000000
 C   -1.777897831257   -2.448445979611    0.000000000000
 O   -1.090392831257    0.096239020389    0.000000000000
 H   -2.967804831257    1.878234020389    0.000000000000
 H   -4.032711831257    0.728652020389    0.888615000000
 H   -4.032711831257    0.728652020389   -0.888615000000
 H   -2.331994831257   -3.393569979611    0.000000000000
 H   -1.148102831257   -2.362146979611    0.896190000000
 H   -1.148102831257   -2.362146979611   -0.896190000000
 K    4.298461889485    1.196350286912    0.000000000000
