12

 C   -3.434159038938    0.864327121247    0.000000000000
 C   -2.321817038938   -0.155150878753    0.000000000000
 O   -2.826148038938   -1.421603878753    0.000000000000
 C   -1.811682038938   -2.455342878753    0.000000000000
 O   -1.124177038938    0.089342121247    0.000000000000
 H   -3.001589038938    1.871337121247    0.000000000000
 H   -4.066496038938    0.721755121247    0.888615000000
 H   -4.066496038938    0.721755121247   -0.888615000000
 H   -2.365779038938   -3.400466878753    0.000000000000
 H   -1.181887038938   -2.369043878753    0.896190000000
 H   -1.181887038938   -2.369043878753   -0.896190000000
 K    4.362656858545    1.209455410798    0.000000000000
