12

 C   -3.535511661980    0.843636423821    0.000000000000
 C   -2.423169661980   -0.175841576179    0.000000000000
 O   -2.927500661980   -1.442294576179    0.000000000000
 C   -1.913034661980   -2.476033576179    0.000000000000
 O   -1.225529661980    0.068651423821    0.000000000000
 H   -3.102941661980    1.850646423821    0.000000000000
 H   -4.167848661980    0.701064423821    0.888615000000
 H   -4.167848661980    0.701064423821   -0.888615000000
 H   -2.467131661980   -3.421157576179    0.000000000000
 H   -1.283239661980   -2.389734576179    0.896190000000
 H   -1.283239661980   -2.389734576179   -0.896190000000
 K    4.555241765726    1.248770782455    0.000000000000
