12

 C   -3.603080077342    0.829842625537    0.000000000000
 C   -2.490738077342   -0.189635374463    0.000000000000
 O   -2.995069077342   -1.456088374463    0.000000000000
 C   -1.980603077342   -2.489827374463    0.000000000000
 O   -1.293098077342    0.054857625537    0.000000000000
 H   -3.170510077342    1.836852625537    0.000000000000
 H   -4.235417077342    0.687270625537    0.888615000000
 H   -4.235417077342    0.687270625537   -0.888615000000
 H   -2.534700077342   -3.434951374463    0.000000000000
 H   -1.350808077342   -2.403528374463    0.896190000000
 H   -1.350808077342   -2.403528374463   -0.896190000000
 K    4.683631703846    1.274981030226    0.000000000000
