12

 C   -3.704432700384    0.809151928111    0.000000000000
 C   -2.592090700384   -0.210326071889    0.000000000000
 O   -3.096421700384   -1.476779071889    0.000000000000
 C   -2.081955700384   -2.510518071889    0.000000000000
 O   -1.394450700384    0.034166928111    0.000000000000
 H   -3.271862700384    1.816161928111    0.000000000000
 H   -4.336769700384    0.666579928111    0.888615000000
 H   -4.336769700384    0.666579928111   -0.888615000000
 H   -2.636052700384   -3.455642071889    0.000000000000
 H   -1.452160700384   -2.424219071889    0.896190000000
 H   -1.452160700384   -2.424219071889   -0.896190000000
 K    4.876216611026    1.314296401883    0.000000000000
