12

 C   -3.738216908064    0.802255028969    0.000000000000
 C   -2.625874908064   -0.217222971031    0.000000000000
 O   -3.130205908064   -1.483675971031    0.000000000000
 C   -2.115739908064   -2.517414971031    0.000000000000
 O   -1.428234908064    0.027270028969    0.000000000000
 H   -3.305646908064    1.809265028969    0.000000000000
 H   -4.370553908064    0.659683028969    0.888615000000
 H   -4.370553908064    0.659683028969   -0.888615000000
 H   -2.669836908064   -3.462538971031    0.000000000000
 H   -1.485944908064   -2.431115971031    0.896190000000
 H   -1.485944908064   -2.431115971031   -0.896190000000
 K    4.940411580086    1.327401525769    0.000000000000
