12

 C   -3.873353738787    0.774667432401    0.000000000000
 C   -2.761011738787   -0.244810567599    0.000000000000
 O   -3.265342738787   -1.511263567599    0.000000000000
 C   -2.250876738787   -2.545002567599    0.000000000000
 O   -1.563371738787   -0.000317567599    0.000000000000
 H   -3.440783738787    1.781677432401    0.000000000000
 H   -4.505690738787    0.632095432401    0.888615000000
 H   -4.505690738787    0.632095432401   -0.888615000000
 H   -2.804973738787   -3.490126567599    0.000000000000
 H   -1.621081738787   -2.458703567599    0.896190000000
 H   -1.621081738787   -2.458703567599   -0.896190000000
 K    5.197191456326    1.379822021311    0.000000000000
