12

 C   -3.907137946468    0.767770533259    0.000000000000
 C   -2.794795946468   -0.251707466741    0.000000000000
 O   -3.299126946468   -1.518160466741    0.000000000000
 C   -2.284660946468   -2.551899466741    0.000000000000
 O   -1.597155946468   -0.007214466741    0.000000000000
 H   -3.474567946468    1.774780533259    0.000000000000
 H   -4.539474946468    0.625198533259    0.888615000000
 H   -4.539474946468    0.625198533259   -0.888615000000
 H   -2.838757946468   -3.497023466741    0.000000000000
 H   -1.654865946468   -2.465600466741    0.896190000000
 H   -1.654865946468   -2.465600466741   -0.896190000000
 K    5.261386425386    1.392927145197    0.000000000000
