12

 C   -4.008490569510    0.747079835832    0.000000000000
 C   -2.896148569510   -0.272398164168    0.000000000000
 O   -3.400479569510   -1.538851164168    0.000000000000
 C   -2.386013569510   -2.572590164168    0.000000000000
 O   -1.698508569510   -0.027905164168    0.000000000000
 H   -3.575920569510    1.754089835832    0.000000000000
 H   -4.640827569510    0.604507835832    0.888615000000
 H   -4.640827569510    0.604507835832   -0.888615000000
 H   -2.940110569510   -3.517714164168    0.000000000000
 H   -1.756218569510   -2.486291164168    0.896190000000
 H   -1.756218569510   -2.486291164168   -0.896190000000
 K    5.453971332566    1.432242516854    0.000000000000
