12

 C   -4.042274777191    0.740182936690    0.000000000000
 C   -2.929932777191   -0.279295063310    0.000000000000
 O   -3.434263777191   -1.545748063310    0.000000000000
 C   -2.419797777191   -2.579487063310    0.000000000000
 O   -1.732292777191   -0.034802063310    0.000000000000
 H   -3.609704777191    1.747192936690    0.000000000000
 H   -4.674611777191    0.597610936690    0.888615000000
 H   -4.674611777191    0.597610936690   -0.888615000000
 H   -2.973894777191   -3.524611063310    0.000000000000
 H   -1.790002777191   -2.493188063310    0.896190000000
 H   -1.790002777191   -2.493188063310   -0.896190000000
 K    5.518166301626    1.445347640739    0.000000000000
