12

 C   -4.177411607914    0.712595340122    0.000000000000
 C   -3.065069607914   -0.306882659878    0.000000000000
 O   -3.569400607914   -1.573335659878    0.000000000000
 C   -2.554934607914   -2.607074659878    0.000000000000
 O   -1.867429607914   -0.062389659878    0.000000000000
 H   -3.744841607914    1.719605340122    0.000000000000
 H   -4.809748607914    0.570023340122    0.888615000000
 H   -4.809748607914    0.570023340122   -0.888615000000
 H   -3.109031607914   -3.552198659878    0.000000000000
 H   -1.925139607914   -2.520775659878    0.896190000000
 H   -1.925139607914   -2.520775659878   -0.896190000000
 K    5.774946177867    1.497768136282    0.000000000000
