12

 C   -4.312548438637    0.685007743554    0.000000000000
 C   -3.200206438637   -0.334470256446    0.000000000000
 O   -3.704537438637   -1.600923256446    0.000000000000
 C   -2.690071438637   -2.634662256446    0.000000000000
 O   -2.002566438637   -0.089977256446    0.000000000000
 H   -3.879978438637    1.692017743554    0.000000000000
 H   -4.944885438637    0.542435743554    0.888615000000
 H   -4.944885438637    0.542435743554   -0.888615000000
 H   -3.244168438637   -3.579786256446    0.000000000000
 H   -2.060276438637   -2.548363256446    0.896190000000
 H   -2.060276438637   -2.548363256446   -0.896190000000
 K    6.031726054107    1.550188631825    0.000000000000
