12

 C   -4.380116853998    0.671213945270    0.000000000000
 C   -3.267774853998   -0.348264054730    0.000000000000
 O   -3.772105853998   -1.614717054730    0.000000000000
 C   -2.757639853998   -2.648456054730    0.000000000000
 O   -2.070134853998   -0.103771054730    0.000000000000
 H   -3.947546853998    1.678223945270    0.000000000000
 H   -5.012453853998    0.528641945270    0.888615000000
 H   -5.012453853998    0.528641945270   -0.888615000000
 H   -3.311736853998   -3.593580054730    0.000000000000
 H   -2.127844853998   -2.562157054730    0.896190000000
 H   -2.127844853998   -2.562157054730   -0.896190000000
 K    6.160115992227    1.576398879596    0.000000000000
