12

 C   -4.481469477040    0.650523247844    0.000000000000
 C   -3.369127477040   -0.368954752156    0.000000000000
 O   -3.873458477040   -1.635407752156    0.000000000000
 C   -2.858992477040   -2.669146752156    0.000000000000
 O   -2.171487477040   -0.124461752156    0.000000000000
 H   -4.048899477040    1.657533247844    0.000000000000
 H   -5.113806477040    0.507951247844    0.888615000000
 H   -5.113806477040    0.507951247844   -0.888615000000
 H   -3.413089477040   -3.614270752156    0.000000000000
 H   -2.229197477040   -2.582847752156    0.896190000000
 H   -2.229197477040   -2.582847752156   -0.896190000000
 K    6.352700899407    1.615714251253    0.000000000000
