12

 C   -4.515253684721    0.643626348702    0.000000000000
 C   -3.402911684721   -0.375851651298    0.000000000000
 O   -3.907242684721   -1.642304651298    0.000000000000
 C   -2.892776684721   -2.676043651298    0.000000000000
 O   -2.205271684721   -0.131358651298    0.000000000000
 H   -4.082683684721    1.650636348702    0.000000000000
 H   -5.147590684721    0.501054348702    0.888615000000
 H   -5.147590684721    0.501054348702   -0.888615000000
 H   -3.446873684721   -3.621167651298    0.000000000000
 H   -2.262981684721   -2.589744651298    0.896190000000
 H   -2.262981684721   -2.589744651298   -0.896190000000
 K    6.416895868467    1.628819375138    0.000000000000
