12

 C   -4.616606307763    0.622935651276    0.000000000000
 C   -3.504264307763   -0.396542348724    0.000000000000
 O   -4.008595307763   -1.662995348724    0.000000000000
 C   -2.994129307763   -2.696734348724    0.000000000000
 O   -2.306624307763   -0.152049348724    0.000000000000
 H   -4.184036307763    1.629945651276    0.000000000000
 H   -5.248943307763    0.480363651276    0.888615000000
 H   -5.248943307763    0.480363651276   -0.888615000000
 H   -3.548226307763   -3.641858348724    0.000000000000
 H   -2.364334307763   -2.610435348724    0.896190000000
 H   -2.364334307763   -2.610435348724   -0.896190000000
 K    6.609480775647    1.668134746795    0.000000000000
