12

 C   -4.650390515444    0.616038752133    0.000000000000
 C   -3.538048515444   -0.403439247867    0.000000000000
 O   -4.042379515444   -1.669892247867    0.000000000000
 C   -3.027913515444   -2.703631247867    0.000000000000
 O   -2.340408515444   -0.158946247867    0.000000000000
 H   -4.217820515444    1.623048752133    0.000000000000
 H   -5.282727515444    0.473466752133    0.888615000000
 H   -5.282727515444    0.473466752133   -0.888615000000
 H   -3.582010515444   -3.648755247867    0.000000000000
 H   -2.398118515444   -2.617332247867    0.896190000000
 H   -2.398118515444   -2.617332247867   -0.896190000000
 K    6.673675744707    1.681239870681    0.000000000000
