12

 C   -4.717958930805    0.602244953849    0.000000000000
 C   -3.605616930805   -0.417233046151    0.000000000000
 O   -4.109947930805   -1.683686046151    0.000000000000
 C   -3.095481930805   -2.717425046151    0.000000000000
 O   -2.407976930805   -0.172740046151    0.000000000000
 H   -4.285388930805    1.609254953849    0.000000000000
 H   -5.350295930805    0.459672953849    0.888615000000
 H   -5.350295930805    0.459672953849   -0.888615000000
 H   -3.649578930805   -3.662549046151    0.000000000000
 H   -2.465686930805   -2.631126046151    0.896190000000
 H   -2.465686930805   -2.631126046151   -0.896190000000
 K    6.802065682828    1.707450118452    0.000000000000
