13

 C    2.194122874945    0.057129929319    0.000000000000
 H    1.727502874945    1.049296929319    0.000000000000
 H    2.831271874945   -0.047287070681    0.892506000000
 H    2.831271874945   -0.047287070681   -0.892506000000
 C    1.095947874945   -0.993955070681    0.000000000000
 O   -0.110215125055   -0.715901070681    0.000000000000
 N    1.526876874945   -2.294104070681    0.000000000000
 H    2.519053874945   -2.488005070681    0.000000000000
 C    0.568541874945   -3.392632070681    0.000000000000
 H   -0.075523125055   -3.344153070681    0.890708000000
 H   -0.075523125055   -3.344153070681   -0.890708000000
 H    1.121767874945   -4.341057070681    0.000000000000
CS   -0.578504461686    0.814035234267    0.000000000000
