13

 C    2.250783220183   -0.127983658479    0.000000000000
 H    1.784163220183    0.864183341521    0.000000000000
 H    2.887932220183   -0.232400658479    0.892506000000
 H    2.887932220183   -0.232400658479   -0.892506000000
 C    1.152608220183   -1.179068658479    0.000000000000
 O   -0.053554779817   -0.901014658479    0.000000000000
 N    1.583537220183   -2.479217658479    0.000000000000
 H    2.575714220183   -2.673118658479    0.000000000000
 C    0.625202220183   -3.577745658479    0.000000000000
 H   -0.018862779817   -3.529266658479    0.890708000000
 H   -0.018862779817   -3.529266658479   -0.890708000000
 H    1.178428220183   -4.526170658479    0.000000000000
CS   -0.609648367066    0.915784703647    0.000000000000
