13

 C    3.780612541622   -5.126050529017    0.000000000000
 H    3.313992541622   -4.133883529017    0.000000000000
 H    4.417761541622   -5.230467529017    0.892506000000
 H    4.417761541622   -5.230467529017   -0.892506000000
 C    2.682437541622   -6.177135529017    0.000000000000
 O    1.476274541622   -5.899081529017    0.000000000000
 N    3.113366541622   -7.477284529017    0.000000000000
 H    4.105543541622   -7.671185529017    0.000000000000
 C    2.155031541622   -8.575812529017    0.000000000000
 H    1.510966541622   -8.527333529017    0.890708000000
 H    1.510966541622   -8.527333529017   -0.890708000000
 H    2.708257541622   -9.524237529017    0.000000000000
CS   -1.450533812323    3.663020376907    0.000000000000
