13

 C    2.288556783676   -0.251392717011    0.000000000000
 H    1.821936783676    0.740774282989    0.000000000000
 H    2.925705783676   -0.355809717011    0.892506000000
 H    2.925705783676   -0.355809717011   -0.892506000000
 C    1.190381783676   -1.302477717011    0.000000000000
 O   -0.015781216324   -1.024423717011    0.000000000000
 N    1.621310783676   -2.602626717011    0.000000000000
 H    2.613487783676   -2.796527717011    0.000000000000
 C    0.662975783676   -3.701154717011    0.000000000000
 H    0.018910783676   -3.652675717011    0.890708000000
 H    0.018910783676   -3.652675717011   -0.890708000000
 H    1.216201783676   -4.649579717011    0.000000000000
CS   -0.630410970653    0.983617683233    0.000000000000
