13

 C    2.439651037645   -0.745028951138    0.000000000000
 H    1.973031037645    0.247138048862    0.000000000000
 H    3.076800037645   -0.849445951138    0.892506000000
 H    3.076800037645   -0.849445951138   -0.892506000000
 C    1.341476037645   -1.796113951138    0.000000000000
 O    0.135313037645   -1.518059951138    0.000000000000
 N    1.772405037645   -3.096262951138    0.000000000000
 H    2.764582037645   -3.290163951138    0.000000000000
 C    0.814070037645   -4.194790951138    0.000000000000
 H    0.170005037645   -4.146311951138    0.890708000000
 H    0.170005037645   -4.146311951138   -0.890708000000
 H    1.367296037645   -5.143215951138    0.000000000000
CS   -0.713461384999    1.254949601580    0.000000000000
