13

 C    2.458537819391   -0.806733480404    0.000000000000
 H    1.991917819391    0.185433519596    0.000000000000
 H    3.095686819391   -0.911150480404    0.892506000000
 H    3.095686819391   -0.911150480404   -0.892506000000
 C    1.360362819391   -1.857818480404    0.000000000000
 O    0.154199819391   -1.579764480404    0.000000000000
 N    1.791291819391   -3.157967480404    0.000000000000
 H    2.783468819391   -3.351868480404    0.000000000000
 C    0.832956819391   -4.256495480404    0.000000000000
 H    0.188891819391   -4.208016480404    0.890708000000
 H    0.188891819391   -4.208016480404   -0.890708000000
 H    1.386182819391   -5.204920480404    0.000000000000
CS   -0.723842686792    1.288866091373    0.000000000000
