13

 C    2.515198164629   -0.991847068202    0.000000000000
 H    2.048578164629    0.000319931798    0.000000000000
 H    3.152347164629   -1.096264068202    0.892506000000
 H    3.152347164629   -1.096264068202   -0.892506000000
 C    1.417023164629   -2.042932068202    0.000000000000
 O    0.210860164629   -1.764878068202    0.000000000000
 N    1.847952164629   -3.343081068202    0.000000000000
 H    2.840129164629   -3.536982068202    0.000000000000
 C    0.889617164629   -4.441609068202    0.000000000000
 H    0.245552164629   -4.393130068202    0.890708000000
 H    0.245552164629   -4.393130068202   -0.890708000000
 H    1.442843164629   -5.390034068202    0.000000000000
CS   -0.754986592172    1.390615560753    0.000000000000
