13

 C    2.647405636853   -1.423778773063    0.000000000000
 H    2.180785636853   -0.431611773063    0.000000000000
 H    3.284554636853   -1.528195773063    0.892506000000
 H    3.284554636853   -1.528195773063   -0.892506000000
 C    1.549230636853   -2.474863773063    0.000000000000
 O    0.343067636853   -2.196809773063    0.000000000000
 N    1.980159636853   -3.775012773063    0.000000000000
 H    2.972336636853   -3.968913773063    0.000000000000
 C    1.021824636853   -4.873540773063    0.000000000000
 H    0.377759636853   -4.825061773063    0.890708000000
 H    0.377759636853   -4.825061773063   -0.890708000000
 H    1.575050636853   -5.821965773063    0.000000000000
CS   -0.827655704725    1.628030989307    0.000000000000
