13

 C    2.685179200345   -1.547187831595    0.000000000000
 H    2.218559200345   -0.555020831595    0.000000000000
 H    3.322328200345   -1.651604831595    0.892506000000
 H    3.322328200345   -1.651604831595   -0.892506000000
 C    1.587004200345   -2.598272831595    0.000000000000
 O    0.380841200345   -2.320218831595    0.000000000000
 N    2.017933200345   -3.898421831595    0.000000000000
 H    3.010110200345   -4.092322831595    0.000000000000
 C    1.059598200345   -4.996949831595    0.000000000000
 H    0.415533200345   -4.948470831595    0.890708000000
 H    0.415533200345   -4.948470831595   -0.890708000000
 H    1.612824200345   -5.945374831595    0.000000000000
CS   -0.848418308312    1.695863968893    0.000000000000
