13

 C    2.779613109076   -1.855710477924    0.000000000000
 H    2.312993109076   -0.863543477924    0.000000000000
 H    3.416762109076   -1.960127477924    0.892506000000
 H    3.416762109076   -1.960127477924   -0.892506000000
 C    1.681438109076   -2.906795477924    0.000000000000
 O    0.475275109076   -2.628741477924    0.000000000000
 N    2.112367109076   -4.206944477924    0.000000000000
 H    3.104544109076   -4.400845477924    0.000000000000
 C    1.154032109076   -5.305472477924    0.000000000000
 H    0.509967109076   -5.256993477924    0.890708000000
 H    0.509967109076   -5.256993477924   -0.890708000000
 H    1.707258109076   -6.253897477924    0.000000000000
CS   -0.900324817278    1.865446417860    0.000000000000
