13

 C    2.855160236060   -2.102528594988    0.000000000000
 H    2.388540236060   -1.110361594988    0.000000000000
 H    3.492309236060   -2.206945594988    0.892506000000
 H    3.492309236060   -2.206945594988   -0.892506000000
 C    1.756985236060   -3.153613594988    0.000000000000
 O    0.550822236060   -2.875559594988    0.000000000000
 N    2.187914236060   -4.453762594988    0.000000000000
 H    3.180091236060   -4.647663594988    0.000000000000
 C    1.229579236060   -5.552290594988    0.000000000000
 H    0.585514236060   -5.503811594988    0.890708000000
 H    0.585514236060   -5.503811594988   -0.890708000000
 H    1.782805236060   -6.500715594988    0.000000000000
CS   -0.941850024451    2.001112377033    0.000000000000
