13

 C    2.911820581299   -2.287642182786    0.000000000000
 H    2.445200581299   -1.295475182786    0.000000000000
 H    3.548969581299   -2.392059182786    0.892506000000
 H    3.548969581299   -2.392059182786   -0.892506000000
 C    1.813645581299   -3.338727182786    0.000000000000
 O    0.607482581299   -3.060673182786    0.000000000000
 N    2.244574581299   -4.638876182786    0.000000000000
 H    3.236751581299   -4.832777182786    0.000000000000
 C    1.286239581299   -5.737404182786    0.000000000000
 H    0.642174581299   -5.688925182786    0.890708000000
 H    0.642174581299   -5.688925182786   -0.890708000000
 H    1.839465581299   -6.685829182786    0.000000000000
CS   -0.972993929831    2.102861846413    0.000000000000
