13

 C    2.949594144791   -2.411051241317    0.000000000000
 H    2.482974144791   -1.418884241317    0.000000000000
 H    3.586743144791   -2.515468241317    0.892506000000
 H    3.586743144791   -2.515468241317   -0.892506000000
 C    1.851419144791   -3.462136241317    0.000000000000
 O    0.645256144791   -3.184082241317    0.000000000000
 N    2.282348144791   -4.762285241317    0.000000000000
 H    3.274525144791   -4.956186241317    0.000000000000
 C    1.324013144791   -5.860813241317    0.000000000000
 H    0.679948144791   -5.812334241317    0.890708000000
 H    0.679948144791   -5.812334241317   -0.890708000000
 H    1.877239144791   -6.809238241317    0.000000000000
CS   -0.993756533418    2.170694826000    0.000000000000
