13

 C    2.968480926537   -2.472755770583    0.000000000000
 H    2.501860926537   -1.480588770583    0.000000000000
 H    3.605629926537   -2.577172770583    0.892506000000
 H    3.605629926537   -2.577172770583   -0.892506000000
 C    1.870305926537   -3.523840770583    0.000000000000
 O    0.664142926537   -3.245786770583    0.000000000000
 N    2.301234926537   -4.823989770583    0.000000000000
 H    3.293411926537   -5.017890770583    0.000000000000
 C    1.342899926537   -5.922517770583    0.000000000000
 H    0.698834926537   -5.874038770583    0.890708000000
 H    0.698834926537   -5.874038770583   -0.890708000000
 H    1.896125926537   -6.870942770583    0.000000000000
CS   -1.004137835211    2.204611315793    0.000000000000
