13

 C    3.006254490029   -2.596164829115    0.000000000000
 H    2.539634490029   -1.603997829115    0.000000000000
 H    3.643403490029   -2.700581829115    0.892506000000
 H    3.643403490029   -2.700581829115   -0.892506000000
 C    1.908079490029   -3.647249829115    0.000000000000
 O    0.701916490029   -3.369195829115    0.000000000000
 N    2.339008490029   -4.947398829115    0.000000000000
 H    3.331185490029   -5.141299829115    0.000000000000
 C    1.380673490029   -6.045926829115    0.000000000000
 H    0.736608490029   -5.997447829115    0.890708000000
 H    0.736608490029   -5.997447829115   -0.890708000000
 H    1.933899490029   -6.994351829115    0.000000000000
CS   -1.024900438798    2.272444295380    0.000000000000
