13

 C    3.119575180506   -2.966392004711    0.000000000000
 H    2.652955180506   -1.974225004711    0.000000000000
 H    3.756724180506   -3.070809004711    0.892506000000
 H    3.756724180506   -3.070809004711   -0.892506000000
 C    2.021400180506   -4.017477004711    0.000000000000
 O    0.815237180506   -3.739423004711    0.000000000000
 N    2.452329180506   -5.317626004711    0.000000000000
 H    3.444506180506   -5.511527004711    0.000000000000
 C    1.493994180506   -6.416154004711    0.000000000000
 H    0.849929180506   -6.367675004711    0.890708000000
 H    0.849929180506   -6.367675004711   -0.890708000000
 H    2.047220180506   -7.364579004711    0.000000000000
CS   -1.087188249558    2.475943234140    0.000000000000
