13

 C    3.138461962253   -3.028096533977    0.000000000000
 H    2.671841962253   -2.035929533977    0.000000000000
 H    3.775610962253   -3.132513533977    0.892506000000
 H    3.775610962253   -3.132513533977   -0.892506000000
 C    2.040286962253   -4.079181533977    0.000000000000
 O    0.834123962253   -3.801127533977    0.000000000000
 N    2.471215962253   -5.379330533977    0.000000000000
 H    3.463392962253   -5.573231533977    0.000000000000
 C    1.512880962253   -6.477858533977    0.000000000000
 H    0.868815962253   -6.429379533977    0.890708000000
 H    0.868815962253   -6.429379533977   -0.890708000000
 H    2.066106962253   -7.426283533977    0.000000000000
CS   -1.097569551351    2.509859723933    0.000000000000
