13

 C    3.176235525745   -3.151505592508    0.000000000000
 H    2.709615525745   -2.159338592508    0.000000000000
 H    3.813384525745   -3.255922592508    0.892506000000
 H    3.813384525745   -3.255922592508   -0.892506000000
 C    2.078060525745   -4.202590592508    0.000000000000
 O    0.871897525745   -3.924536592508    0.000000000000
 N    2.508989525745   -5.502739592508    0.000000000000
 H    3.501166525745   -5.696640592508    0.000000000000
 C    1.550654525745   -6.601267592508    0.000000000000
 H    0.906589525745   -6.552788592508    0.890708000000
 H    0.906589525745   -6.552788592508   -0.890708000000
 H    2.103880525745   -7.549692592508    0.000000000000
CS   -1.118332154937    2.577692703520    0.000000000000
