13

 C    3.195122307491   -3.213210121774    0.000000000000
 H    2.728502307491   -2.221043121774    0.000000000000
 H    3.832271307491   -3.317627121774    0.892506000000
 H    3.832271307491   -3.317627121774   -0.892506000000
 C    2.096947307491   -4.264295121774    0.000000000000
 O    0.890784307491   -3.986241121774    0.000000000000
 N    2.527876307491   -5.564444121774    0.000000000000
 H    3.520053307491   -5.758345121774    0.000000000000
 C    1.569541307491   -6.662972121774    0.000000000000
 H    0.925476307491   -6.614493121774    0.890708000000
 H    0.925476307491   -6.614493121774   -0.890708000000
 H    2.122767307491   -7.611397121774    0.000000000000
CS   -1.128713456731    2.611609193313    0.000000000000
