13

 C    3.270669434476   -3.460028238838    0.000000000000
 H    2.804049434476   -2.467861238838    0.000000000000
 H    3.907818434476   -3.564445238838    0.892506000000
 H    3.907818434476   -3.564445238838   -0.892506000000
 C    2.172494434476   -4.511113238838    0.000000000000
 O    0.966331434476   -4.233059238838    0.000000000000
 N    2.603423434476   -5.811262238838    0.000000000000
 H    3.595600434476   -6.005163238838    0.000000000000
 C    1.645088434476   -6.909790238838    0.000000000000
 H    1.001023434476   -6.861311238838    0.890708000000
 H    1.001023434476   -6.861311238838   -0.890708000000
 H    2.198314434476   -7.858215238838    0.000000000000
CS   -1.170238663904    2.747275152487    0.000000000000
