13

 C    3.289556216222   -3.521732768104    0.000000000000
 H    2.822936216222   -2.529565768104    0.000000000000
 H    3.926705216222   -3.626149768104    0.892506000000
 H    3.926705216222   -3.626149768104   -0.892506000000
 C    2.191381216222   -4.572817768104    0.000000000000
 O    0.985218216222   -4.294763768104    0.000000000000
 N    2.622310216222   -5.872966768104    0.000000000000
 H    3.614487216222   -6.066867768104    0.000000000000
 C    1.663975216222   -6.971494768104    0.000000000000
 H    1.019910216222   -6.923015768104    0.890708000000
 H    1.019910216222   -6.923015768104   -0.890708000000
 H    2.217201216222   -7.919919768104    0.000000000000
CS   -1.180619965697    2.781191642280    0.000000000000
