13

 C    3.346216561460   -3.706846355902    0.000000000000
 H    2.879596561460   -2.714679355902    0.000000000000
 H    3.983365561460   -3.811263355902    0.892506000000
 H    3.983365561460   -3.811263355902   -0.892506000000
 C    2.248041561460   -4.757931355902    0.000000000000
 O    1.041878561460   -4.479877355902    0.000000000000
 N    2.678970561460   -6.058080355902    0.000000000000
 H    3.671147561460   -6.251981355902    0.000000000000
 C    1.720635561460   -7.156608355902    0.000000000000
 H    1.076570561460   -7.108129355902    0.890708000000
 H    1.076570561460   -7.108129355902   -0.890708000000
 H    2.273861561460   -8.105033355902    0.000000000000
CS   -1.211763871077    2.882941111660    0.000000000000
