13

 C    3.383990124953   -3.830255414433    0.000000000000
 H    2.917370124953   -2.838088414433    0.000000000000
 H    4.021139124953   -3.934672414433    0.892506000000
 H    4.021139124953   -3.934672414433   -0.892506000000
 C    2.285815124953   -4.881340414433    0.000000000000
 O    1.079652124953   -4.603286414433    0.000000000000
 N    2.716744124953   -6.181489414433    0.000000000000
 H    3.708921124953   -6.375390414433    0.000000000000
 C    1.758409124953   -7.280017414433    0.000000000000
 H    1.114344124953   -7.231538414433    0.890708000000
 H    1.114344124953   -7.231538414433   -0.890708000000
 H    2.311635124953   -8.228442414433    0.000000000000
CS   -1.232526474664    2.950774091247    0.000000000000
