13

 C    3.440650470191   -4.015369002231    0.000000000000
 H    2.974030470191   -3.023202002231    0.000000000000
 H    4.077799470191   -4.119786002231    0.892506000000
 H    4.077799470191   -4.119786002231   -0.892506000000
 C    2.342475470191   -5.066454002231    0.000000000000
 O    1.136312470191   -4.788400002231    0.000000000000
 N    2.773404470191   -6.366603002231    0.000000000000
 H    3.765581470191   -6.560504002231    0.000000000000
 C    1.815069470191   -7.465131002231    0.000000000000
 H    1.171004470191   -7.416652002231    0.890708000000
 H    1.171004470191   -7.416652002231   -0.890708000000
 H    2.368295470191   -8.413556002231    0.000000000000
CS   -1.263670380044    3.052523560627    0.000000000000
