13

 C    3.478424033683   -4.138778060763    0.000000000000
 H    3.011804033683   -3.146611060763    0.000000000000
 H    4.115573033683   -4.243195060763    0.892506000000
 H    4.115573033683   -4.243195060763   -0.892506000000
 C    2.380249033683   -5.189863060763    0.000000000000
 O    1.174086033683   -4.911809060763    0.000000000000
 N    2.811178033683   -6.490012060763    0.000000000000
 H    3.803355033683   -6.683913060763    0.000000000000
 C    1.852843033683   -7.588540060763    0.000000000000
 H    1.208778033683   -7.540061060763    0.890708000000
 H    1.208778033683   -7.540061060763   -0.890708000000
 H    2.406069033683   -8.536965060763    0.000000000000
CS   -1.284432983630    3.120356540213    0.000000000000
