13

 C    3.553971160668   -4.385596177827    0.000000000000
 H    3.087351160668   -3.393429177827    0.000000000000
 H    4.191120160668   -4.490013177827    0.892506000000
 H    4.191120160668   -4.490013177827   -0.892506000000
 C    2.455796160668   -5.436681177827    0.000000000000
 O    1.249633160668   -5.158627177827    0.000000000000
 N    2.886725160668   -6.736830177827    0.000000000000
 H    3.878902160668   -6.930731177827    0.000000000000
 C    1.928390160668   -7.835358177827    0.000000000000
 H    1.284325160668   -7.786879177827    0.890708000000
 H    1.284325160668   -7.786879177827   -0.890708000000
 H    2.481616160668   -8.783783177827    0.000000000000
CS   -1.325958190803    3.256022499387    0.000000000000
