13

 C    3.572857942414   -4.447300707092    0.000000000000
 H    3.106237942414   -3.455133707092    0.000000000000
 H    4.210006942414   -4.551717707092    0.892506000000
 H    4.210006942414   -4.551717707092   -0.892506000000
 C    2.474682942414   -5.498385707092    0.000000000000
 O    1.268519942414   -5.220331707092    0.000000000000
 N    2.905611942414   -6.798534707092    0.000000000000
 H    3.897788942414   -6.992435707092    0.000000000000
 C    1.947276942414   -7.897062707092    0.000000000000
 H    1.303211942414   -7.848583707092    0.890708000000
 H    1.303211942414   -7.848583707092   -0.890708000000
 H    2.500502942414   -8.845487707092    0.000000000000
CS   -1.336339492597    3.289938989180    0.000000000000
