13

 C    3.629518287653   -4.632414294890    0.000000000000
 H    3.162898287653   -3.640247294890    0.000000000000
 H    4.266667287653   -4.736831294890    0.892506000000
 H    4.266667287653   -4.736831294890   -0.892506000000
 C    2.531343287653   -5.683499294890    0.000000000000
 O    1.325180287653   -5.405445294890    0.000000000000
 N    2.962272287653   -6.983648294890    0.000000000000
 H    3.954449287653   -7.177549294890    0.000000000000
 C    2.003937287653   -8.082176294890    0.000000000000
 H    1.359872287653   -8.033697294890    0.890708000000
 H    1.359872287653   -8.033697294890   -0.890708000000
 H    2.557163287653   -9.030601294890    0.000000000000
CS   -1.367483397976    3.391688458560    0.000000000000
