13

 C    3.648405069399   -4.694118824156    0.000000000000
 H    3.181785069399   -3.701951824156    0.000000000000
 H    4.285554069399   -4.798535824156    0.892506000000
 H    4.285554069399   -4.798535824156   -0.892506000000
 C    2.550230069399   -5.745203824156    0.000000000000
 O    1.344067069399   -5.467149824156    0.000000000000
 N    2.981159069399   -7.045352824156    0.000000000000
 H    3.973336069399   -7.239253824156    0.000000000000
 C    2.022824069399   -8.143880824156    0.000000000000
 H    1.378759069399   -8.095401824156    0.890708000000
 H    1.378759069399   -8.095401824156   -0.890708000000
 H    2.576050069399   -9.092305824156    0.000000000000
CS   -1.377864699770    3.425604948353    0.000000000000
