13

 C    3.667291851145   -4.755823353422    0.000000000000
 H    3.200671851145   -3.763656353422    0.000000000000
 H    4.304440851145   -4.860240353422    0.892506000000
 H    4.304440851145   -4.860240353422   -0.892506000000
 C    2.569116851145   -5.806908353422    0.000000000000
 O    1.362953851145   -5.528854353422    0.000000000000
 N    3.000045851145   -7.107057353422    0.000000000000
 H    3.992222851145   -7.300958353422    0.000000000000
 C    2.041710851145   -8.205585353422    0.000000000000
 H    1.397645851145   -8.157106353422    0.890708000000
 H    1.397645851145   -8.157106353422   -0.890708000000
 H    2.594936851145   -9.154010353422    0.000000000000
CS   -1.388246001563    3.459521438147    0.000000000000
