13

 C    3.705065414637   -4.879232411954    0.000000000000
 H    3.238445414637   -3.887065411954    0.000000000000
 H    4.342214414637   -4.983649411954    0.892506000000
 H    4.342214414637   -4.983649411954   -0.892506000000
 C    2.606890414637   -5.930317411954    0.000000000000
 O    1.400727414637   -5.652263411954    0.000000000000
 N    3.037819414637   -7.230466411954    0.000000000000
 H    4.029996414637   -7.424367411954    0.000000000000
 C    2.079484414637   -8.328994411954    0.000000000000
 H    1.435419414637   -8.280515411954    0.890708000000
 H    1.435419414637   -8.280515411954   -0.890708000000
 H    2.632710414637   -9.277419411954    0.000000000000
CS   -1.409008605150    3.527354417733    0.000000000000
