13

 C    3.723952196383   -4.940936941220    0.000000000000
 H    3.257332196383   -3.948769941220    0.000000000000
 H    4.361101196383   -5.045353941220    0.892506000000
 H    4.361101196383   -5.045353941220   -0.892506000000
 C    2.625777196383   -5.992021941220    0.000000000000
 O    1.419614196383   -5.713967941220    0.000000000000
 N    3.056706196383   -7.292170941220    0.000000000000
 H    4.048883196383   -7.486071941220    0.000000000000
 C    2.098371196383   -8.390698941220    0.000000000000
 H    1.454306196383   -8.342219941220    0.890708000000
 H    1.454306196383   -8.342219941220   -0.890708000000
 H    2.651597196383   -9.339123941220    0.000000000000
CS   -1.419389906943    3.561270907527    0.000000000000
