13

 C    3.742838978129   -5.002641470486    0.000000000000
 H    3.276218978129   -4.010474470486    0.000000000000
 H    4.379987978129   -5.107058470486    0.892506000000
 H    4.379987978129   -5.107058470486   -0.892506000000
 C    2.644663978129   -6.053726470486    0.000000000000
 O    1.438500978129   -5.775672470486    0.000000000000
 N    3.075592978129   -7.353875470486    0.000000000000
 H    4.067769978129   -7.547776470486    0.000000000000
 C    2.117257978129   -8.452403470486    0.000000000000
 H    1.473192978129   -8.403924470486    0.890708000000
 H    1.473192978129   -8.403924470486   -0.890708000000
 H    2.670483978129   -9.400828470486    0.000000000000
CS   -1.429771208736    3.595187397320    0.000000000000
