13

 C    3.761725759876   -5.064345999752    0.000000000000
 H    3.295105759876   -4.072178999752    0.000000000000
 H    4.398874759876   -5.168762999752    0.892506000000
 H    4.398874759876   -5.168762999752   -0.892506000000
 C    2.663550759876   -6.115430999752    0.000000000000
 O    1.457387759876   -5.837376999752    0.000000000000
 N    3.094479759876   -7.415579999752    0.000000000000
 H    4.086656759876   -7.609480999752    0.000000000000
 C    2.136144759876   -8.514107999752    0.000000000000
 H    1.492079759876   -8.465628999752    0.890708000000
 H    1.492079759876   -8.465628999752   -0.890708000000
 H    2.689370759876   -9.462532999752    0.000000000000
CS   -1.440152510529    3.629103887113    0.000000000000
