9

 C   -1.042622868961   -1.458845084507    1.023446025749
 H   -2.021549868961   -0.967057084507    1.023446025749
 H   -0.935476868961   -2.098654084507    1.911718025749
 H   -0.935476868961   -2.098654084507    0.135174025749
 C    0.042004131039   -0.413261084507    1.023446025749
 O   -0.119099868961    0.796289915493    1.023446025749
 O    1.284290131039   -0.990269084507    1.023446025749
 H    1.918826131039   -0.251706084507    1.023446025749
 K   -0.119099868961    0.796289915493   -1.576553974251
