9

 C   -1.042622868961   -1.458845084507    2.834158225150
 H   -2.021549868961   -0.967057084507    2.834158225150
 H   -0.935476868961   -2.098654084507    3.722430225150
 H   -0.935476868961   -2.098654084507    1.945886225150
 C    0.042004131039   -0.413261084507    2.834158225150
 O   -0.119099868961    0.796289915493    2.834158225150
 O    1.284290131039   -0.990269084507    2.834158225150
 H    1.918826131039   -0.251706084507    2.834158225150
 K   -0.119099868961    0.796289915493   -4.365841774850
