9

 C   -1.042622868961   -1.458845084507    3.227791311977
 H   -2.021549868961   -0.967057084507    3.227791311977
 H   -0.935476868961   -2.098654084507    4.116063311977
 H   -0.935476868961   -2.098654084507    2.339519311977
 C    0.042004131039   -0.413261084507    3.227791311977
 O   -0.119099868961    0.796289915493    3.227791311977
 O    1.284290131039   -0.990269084507    3.227791311977
 H    1.918826131039   -0.251706084507    3.227791311977
 K   -0.119099868961    0.796289915493   -4.972208688023
