20

 C    0.305025678310    3.417327568700    0.128380695506
 H    0.817625678310    4.366837568700    0.257750695506
 C    0.774395678310    2.141017568700   -0.138749304494
 H    1.803695678310    1.827787568700   -0.305319304494
 N   -1.063014321690    3.293187568700    0.194390695506
 H   -1.717744321690    4.055027568700    0.369090695506
 C   -1.412984321690    2.005667568700   -0.021379304494
 H   -2.441864321690    1.654617568700   -0.028109304494
 N   -0.304894321690    1.252967568700   -0.231839304494
LI    0.230215678310   -0.030482431300    1.366600695506
LI   -0.110524321690   -0.461382431300   -1.275579304494
 N    0.292553462374   -1.202245688782    0.222462781678
 C   -0.786736859454   -2.090304598140    0.129358629684
 H   -1.816032634046   -1.777073214961    0.295934580532
 C   -0.317368584107   -3.366604083628   -0.137776139750
 H   -0.829970589360   -4.316115937506   -0.267141731987
 N    1.050675410648   -3.242460027085   -0.203779504369
 H    1.705398994053   -4.004301534257   -0.378475546917
 C    1.400634439914   -1.954949705996    0.011998818275
 H    2.429523131305   -1.603897160701    0.018728875527
