20

 C    0.252287118465    3.634056820634    0.088278048215
 H    0.764887118465    4.583566820634    0.217648048215
 C    0.721657118465    2.357746820634   -0.178851951785
 H    1.750957118465    2.044516820634   -0.345421951785
 N   -1.115752881535    3.509916820634    0.154288048215
 H   -1.770482881535    4.271756820634    0.328988048215
 C   -1.465722881535    2.222396820634   -0.061481951785
 H   -2.494602881535    1.871346820634   -0.068211951785
 N   -0.357632881535    1.469696820634   -0.271941951785
LI    0.177477118465    0.186246820634    1.326498048215
LI   -0.163262881535   -0.244653179366   -1.315681951785
 N    0.356168794562   -1.463673065588    0.270836177473
 C   -0.723121527267   -2.351731974946    0.177732025479
 H   -1.752417301858   -2.038500591767    0.344307976327
 C   -0.253753251919   -3.628031460434   -0.089402743955
 H   -0.766355257172   -4.577543314312   -0.218768336192
 N    1.114290742836   -3.503887403891   -0.155406108574
 H    1.769014326241   -4.265728911063   -0.330102151122
 C    1.464249772102   -2.216377082802    0.060372214070
 H    2.493138463493   -1.865324537507    0.067102271322
