20

 C    0.210096270590    3.807440222182    0.056195930383
 H    0.722696270590    4.756950222182    0.185565930383
 C    0.679466270590    2.531130222182   -0.210934069617
 H    1.708766270590    2.217900222182   -0.377504069617
 N   -1.157943729410    3.683300222182    0.122205930383
 H   -1.812673729410    4.445140222182    0.296905930383
 C   -1.507913729410    2.395780222182   -0.093564069617
 H   -2.536793729410    2.044730222182   -0.100294069617
 N   -0.399823729410    1.643080222182   -0.304024069617
LI    0.135286270590    0.359630222182    1.294415930383
LI   -0.205453729410   -0.071269777818   -1.347764069617
 N    0.407061060312   -1.672814967033    0.309534894109
 C   -0.672229261517   -2.560873876390    0.216430742115
 H   -1.701525036108   -2.247642493212    0.383006692963
 C   -0.202860986169   -3.837173361878   -0.050704027319
 H   -0.715462991422   -4.786685215757   -0.180069619556
 N    1.165183008586   -3.713029305336   -0.116707391938
 H    1.819906591991   -4.474870812508   -0.291403434486
 C    1.515142037852   -2.425518984246    0.099070930706
 H    2.544030729243   -2.074466438952    0.105800987958
