20

 C    0.189000846652    3.894131922956    0.040154871467
 H    0.701600846652    4.843641922956    0.169524871467
 C    0.658370846652    2.617821922956   -0.226975128533
 H    1.687670846652    2.304591922956   -0.393545128533
 N   -1.179039153348    3.769991922956    0.106164871467
 H   -1.833769153348    4.531831922956    0.280864871467
 C   -1.529009153348    2.482471922956   -0.109605128533
 H   -2.557889153348    2.131421922956   -0.116335128533
 N   -0.420919153348    1.729771922956   -0.320065128533
LI    0.114190846652    0.446321922956    1.278374871467
LI   -0.226549153348    0.015421922956   -1.363805128533
 N    0.432507193187   -1.777385917755    0.328884252427
 C   -0.646783128641   -2.665444827113    0.235780100433
 H   -1.676078903233   -2.352213443935    0.402356051281
 C   -0.177414853294   -3.941744312601   -0.031354669001
 H   -0.690016858547   -4.891256166479   -0.160720261238
 N    1.190629141461   -3.817600256058   -0.097358033620
 H    1.845352724866   -4.579441763230   -0.272054076168
 C    1.540588170728   -2.530089934969    0.118420289024
 H    2.569476862118   -2.179037389674    0.125150346276
