20

 C    0.157357710745    4.024169474117    0.016093283092
 H    0.669957710745    4.973679474117    0.145463283092
 C    0.626727710745    2.747859474117   -0.251036716908
 H    1.656027710745    2.434629474117   -0.417606716908
 N   -1.210682289255    3.900029474117    0.082103283092
 H   -1.865412289255    4.661869474117    0.256803283092
 C   -1.560652289255    2.612509474117   -0.133666716908
 H   -2.589532289255    2.261459474117   -0.140396716908
 N   -0.452562289255    1.859809474117   -0.344126716908
LI    0.082547710745    0.576359474117    1.254313283092
LI   -0.258192289255    0.145459474117   -1.387866716908
 N    0.470676392500   -1.934242343839    0.357908289904
 C   -0.608613929329   -2.822301253196    0.264804137910
 H   -1.637909703920   -2.509069870018    0.431380088758
 C   -0.139245653981   -4.098600738684   -0.002330631524
 H   -0.651847659234   -5.048112592563   -0.131696223761
 N    1.228798340774   -3.974456682142   -0.068333996143
 H    1.883521924179   -4.736298189314   -0.243030038691
 C    1.578757370040   -2.686946361052    0.147444326501
 H    2.607646061431   -2.335893815758    0.154174383753
