20

 C    0.083523726963    4.327590426826   -0.040050423115
 H    0.596123726963    5.277100426826    0.089319576885
 C    0.552893726963    3.051280426826   -0.307180423115
 H    1.582193726963    2.738050426826   -0.473750423115
 N   -1.284516273037    4.203450426826    0.025959576885
 H   -1.939246273037    4.965290426826    0.200659576885
 C   -1.634486273037    2.915930426826   -0.189810423115
 H   -2.663366273037    2.564880426826   -0.196540423115
 N   -0.526396273037    2.163230426826   -0.400270423115
LI    0.008713726963    0.879780426826    1.198169576885
LI   -0.332026273037    0.448880426826   -1.444010423115
 N    0.559737857562   -2.300240671367    0.425631044017
 C   -0.519552464266   -3.188299580725    0.332526892023
 H   -1.548848238857   -2.875068197547    0.499102842871
 C   -0.050184188918   -4.464599066213    0.065392122589
 H   -0.562786194171   -5.414110920091   -0.063973469648
 N    1.317859805836   -4.340455009670   -0.000611242029
 H    1.972583389242   -5.102296516842   -0.175307284578
 C    1.667818835103   -3.052944688581    0.215167080614
 H    2.696707526494   -2.701892143286    0.221897137866
