20

 C    0.072976014994    4.370936277213   -0.048070952573
 H    0.585576014994    5.320446277213    0.081299047427
 C    0.542346014994    3.094626277213   -0.315200952573
 H    1.571646014994    2.781396277213   -0.481770952573
 N   -1.295063985006    4.246796277213    0.017939047427
 H   -1.949793985006    5.008636277213    0.192639047427
 C   -1.645033985006    2.959276277213   -0.197830952573
 H   -2.673913985006    2.608226277213   -0.204560952573
 N   -0.536943985006    2.206576277213   -0.408290952573
LI   -0.001833985006    0.923126277213    1.190149047427
LI   -0.342573985006    0.492226277213   -1.452030952573
 N    0.572460924000   -2.352526146729    0.435305723176
 C   -0.506829397828   -3.240585056086    0.342201571182
 H   -1.536125172420   -2.927353672908    0.508777522030
 C   -0.037461122481   -4.516884541574    0.075066801748
 H   -0.550063127734   -5.466396395452   -0.054298790489
 N    1.330582872274   -4.392740485031    0.009063437130
 H    1.985306455680   -5.154581992204   -0.165632605419
 C    1.680541901541   -3.105230163942    0.224841759773
 H    2.709430592931   -2.754177618647    0.231571817025
