20

 C    0.020237455150    4.587665529148   -0.088173599864
 H    0.532837455150    5.537175529148    0.041196400136
 C    0.489607455150    3.311355529148   -0.355303599864
 H    1.518907455150    2.998125529148   -0.521873599864
 N   -1.347802544850    4.463525529148   -0.022163599864
 H   -2.002532544850    5.225365529148    0.152536400136
 C   -1.697772544850    3.176005529148   -0.237933599864
 H   -2.726652544850    2.824955529148   -0.244663599864
 N   -0.589682544850    2.423305529148   -0.448393599864
LI   -0.054572544850    1.139855529148    1.150046400136
LI   -0.395312544850    0.708955529148   -1.492133599864
 N    0.636076256188   -2.613953523535    0.483679118971
 C   -0.443214065641   -3.502012432892    0.390574966977
 H   -1.472509840232   -3.188781049714    0.557150917825
 C    0.026154209707   -4.778311918380    0.123440197543
 H   -0.486447795546   -5.727823772258   -0.005925394694
 N    1.394198204462   -4.654167861837    0.057436832925
 H    2.048921787867   -5.416009369010   -0.117259209624
 C    1.744157233728   -3.366657540748    0.273215155568
 H    2.773045925119   -3.015604995453    0.279945212820
