20

 C   -0.000857968788    4.674357229922   -0.104214658780
 H    0.511742031212    5.623867229922    0.025155341220
 C    0.468512031212    3.398047229922   -0.371344658780
 H    1.497812031212    3.084817229922   -0.537914658780
 N   -1.368897968788    4.550217229922   -0.038204658780
 H   -2.023627968788    5.312057229922    0.136495341220
 C   -1.718867968788    3.262697229922   -0.253974658780
 H   -2.747747968788    2.911647229922   -0.260704658780
 N   -0.610777968788    2.509997229922   -0.464434658780
LI   -0.075667968788    1.226547229922    1.134005341220
LI   -0.416407968788    0.795647229922   -1.508174658780
 N    0.661522389063   -2.718524474257    0.503028477289
 C   -0.417767932766   -3.606583383614    0.409924325295
 H   -1.447063707357   -3.293352000436    0.576500276143
 C    0.051600342582   -4.882882869102    0.142789555861
 H   -0.461001662671   -5.832394722981    0.013423963624
 N    1.419644337337   -4.758738812560    0.076786191243
 H    2.074367920742   -5.520580319732   -0.097909851306
 C    1.769603366603   -3.471228491470    0.292564513886
 H    2.798492057994   -3.120175946176    0.299294571138
