20

 C   -0.032501104694    4.804394781083   -0.128276247155
 H    0.480098895306    5.753904781083    0.001093752845
 C    0.436868895306    3.528084781083   -0.395406247155
 H    1.466168895306    3.214854781083   -0.561976247155
 N   -1.400541104694    4.680254781083   -0.062266247155
 H   -2.055271104694    5.442094781083    0.112433752845
 C   -1.750511104694    3.392734781083   -0.278036247155
 H   -2.779391104694    3.041684781083   -0.284766247155
 N   -0.642421104694    2.640034781083   -0.488496247155
LI   -0.107311104694    1.356584781083    1.109943752845
LI   -0.448051104694    0.925684781083   -1.532236247155
 N    0.699691588376   -2.875380900341    0.532052514766
 C   -0.379598733453   -3.763439809698    0.438948362772
 H   -1.408894508044   -3.450208426520    0.605524313620
 C    0.089769541895   -5.039739295186    0.171813593338
 H   -0.422832463358   -5.989251149064    0.042448001101
 N    1.457813536649   -4.915595238643    0.105810228720
 H    2.112537120055   -5.677436745816   -0.068885813829
 C    1.807772565916   -3.628084917554    0.321588551363
 H    2.836661257307   -3.277032372259    0.328318608615
