20

 C   -0.043048816663    4.847740631470   -0.136296776613
 H    0.469551183337    5.797250631470   -0.006926776613
 C    0.426321183337    3.571430631470   -0.403426776613
 H    1.455621183337    3.258200631470   -0.569996776613
 N   -1.411088816663    4.723600631470   -0.070286776613
 H   -2.065818816663    5.485440631470    0.104413223387
 C   -1.761058816663    3.436080631470   -0.286056776613
 H   -2.789938816663    3.085030631470   -0.292786776613
 N   -0.652968816663    2.683380631470   -0.496516776613
LI   -0.117858816663    1.399930631470    1.101923223387
LI   -0.458598816663    0.969030631470   -1.540256776613
 N    0.712414654813   -2.927666375702    0.541727193925
 C   -0.366875667015   -3.815725285059    0.448623041931
 H   -1.396171441607   -3.502493901881    0.615198992779
 C    0.102492608332   -5.092024770547    0.181488272497
 H   -0.410109396921   -6.041536624426    0.052122680260
 N    1.470536603087   -4.967880714005    0.115484907879
 H    2.125260186493   -5.729722221177   -0.059211134670
 C    1.820495632354   -3.680370392915    0.331263230522
 H    2.849384323744   -3.329317847620    0.337993287774
