20

 C   -0.064144240601    4.934432332244   -0.152337835529
 H    0.448455759399    5.883942332244   -0.022967835529
 C    0.405225759399    3.658122332244   -0.419467835529
 H    1.434525759399    3.344892332244   -0.586037835529
 N   -1.432184240601    4.810292332244   -0.086327835529
 H   -2.086914240601    5.572132332244    0.088372164471
 C   -1.782154240601    3.522772332244   -0.302097835529
 H   -2.811034240601    3.171722332244   -0.308827835529
 N   -0.674064240601    2.770072332244   -0.512557835529
LI   -0.138954240601    1.486622332244    1.085882164471
LI   -0.479694240601    1.055722332244   -1.556297835529
 N    0.737860787688   -3.032237326424    0.561076552243
 C   -0.341429534140   -3.920296235782    0.467972400249
 H   -1.370725308731   -3.607064852603    0.634548351097
 C    0.127938741207   -5.196595721270    0.200837630815
 H   -0.384663264046   -6.146107575148    0.071472038578
 N    1.495982735962   -5.072451664727    0.134834266197
 H    2.150706319368   -5.834293171899   -0.039861776352
 C    1.845941765229   -3.784941343638    0.350612588840
 H    2.874830456619   -3.433888798343    0.357342646092
