20

 C   -0.085239664539    5.021124033018   -0.168378894445
 H    0.427360335461    5.970634033018   -0.039008894445
 C    0.384130335461    3.744814033018   -0.435508894445
 H    1.413430335461    3.431584033018   -0.602078894445
 N   -1.453279664539    4.896984033018   -0.102368894445
 H   -2.108009664539    5.658824033018    0.072331105555
 C   -1.803249664539    3.609464033018   -0.318138894445
 H   -2.832129664539    3.258414033018   -0.324868894445
 N   -0.695159664539    2.856764033018   -0.528598894445
LI   -0.160049664539    1.573314033018    1.069841105555
LI   -0.500789664539    1.142414033018   -1.572338894445
 N    0.763306920563   -3.136808277147    0.580425910561
 C   -0.315983401265   -4.024867186504    0.487321758567
 H   -1.345279175856   -3.711635803326    0.653897709415
 C    0.153384874083   -5.301166671992    0.220186989133
 H   -0.359217131171   -6.250678525870    0.090821396896
 N    1.521428868837   -5.177022615449    0.154183624515
 H    2.176152452243   -5.938864122622   -0.020512418034
 C    1.871387898104   -3.889512294360    0.369961947158
 H    2.900276589494   -3.538459749065    0.376692004410
