20

 C   -0.095787376508    5.064469883405   -0.176399423904
 H    0.416812623492    6.013979883405   -0.047029423904
 C    0.373582623492    3.788159883405   -0.443529423904
 H    1.402882623492    3.474929883405   -0.610099423904
 N   -1.463827376508    4.940329883405   -0.110389423904
 H   -2.118557376508    5.702169883405    0.064310576096
 C   -1.813797376508    3.652809883405   -0.326159423904
 H   -2.842677376508    3.301759883405   -0.332889423904
 N   -0.705707376508    2.900109883405   -0.536619423904
LI   -0.170597376508    1.616659883405    1.061820576096
LI   -0.511337376508    1.185759883405   -1.580359423904
 N    0.776029987001   -3.189093752508    0.590100589720
 C   -0.303260334828   -4.077152661865    0.496996437726
 H   -1.332556109419   -3.763921278687    0.663572388574
 C    0.166107940520   -5.353452147353    0.229861668292
 H   -0.346494064733   -6.302964001232    0.100496076055
 N    1.534151935275   -5.229308090811    0.163858303674
 H    2.188875518680   -5.991149597983   -0.010837738875
 C    1.884110964541   -3.941797769721    0.379636626317
 H    2.912999655932   -3.590745224426    0.386366683569
