20

 C   -0.116882800445    5.151161584179   -0.192440482820
 H    0.395717199555    6.100671584179   -0.063070482820
 C    0.352487199555    3.874851584179   -0.459570482820
 H    1.381787199555    3.561621584179   -0.626140482820
 N   -1.484922800445    5.027021584179   -0.126430482820
 H   -2.139652800445    5.788861584179    0.048269517180
 C   -1.834892800445    3.739501584179   -0.342200482820
 H   -2.863772800445    3.388451584179   -0.348930482820
 N   -0.726802800445    2.986801584179   -0.552660482820
LI   -0.191692800445    1.703351584179    1.045779517180
LI   -0.532432800445    1.272451584179   -1.596400482820
 N    0.801476119876   -3.293664703230    0.609449948038
 C   -0.277814201952   -4.181723612588    0.516345796044
 H   -1.307109976544   -3.868492229409    0.682921746892
 C    0.191554073395   -5.458023098076    0.249211026610
 H   -0.321047931858   -6.407534951954    0.119845434373
 N    1.559598068150   -5.333879041533    0.183207661992
 H    2.214321651555   -6.095720548705    0.008511619443
 C    1.909557097417   -4.046368720444    0.398985984635
 H    2.938445788807   -3.695316175149    0.405716041887
