20

 C   -0.159073648321    5.324544985727   -0.224522600653
 H    0.353526351679    6.274054985727   -0.095152600653
 C    0.310296351679    4.048234985727   -0.491652600653
 H    1.339596351679    3.735004985727   -0.658222600653
 N   -1.527113648321    5.200404985727   -0.158512600653
 H   -2.181843648321    5.962244985727    0.016187399347
 C   -1.877083648321    3.912884985727   -0.374282600653
 H   -2.905963648321    3.561834985727   -0.381012600653
 N   -0.768993648321    3.160184985727   -0.584742600653
LI   -0.233883648321    1.876734985727    1.013697399347
LI   -0.574623648321    1.445834985727   -1.628482600653
 N    0.852368385626   -3.502806604675    0.648148664674
 C   -0.226921936202   -4.390865514032    0.555044512680
 H   -1.256217710794   -4.077634130854    0.721620463528
 C    0.242446339145   -5.667164999520    0.287909743246
 H   -0.270155666108   -6.616676853399    0.158544151009
 N    1.610490333900   -5.543020942978    0.221906378628
 H    2.265213917306   -6.304862450150    0.047210336079
 C    1.960449363167   -4.255510621888    0.437684701271
 H    2.989338054557   -3.904458076594    0.444414758523
