20

 C   -0.243455344072    5.671311788822   -0.288686836318
 H    0.269144655928    6.620821788822   -0.159316836318
 C    0.225914655928    4.395001788822   -0.555816836318
 H    1.255214655928    4.081771788822   -0.722386836318
 N   -1.611495344072    5.547171788822   -0.222676836318
 H   -2.266225344072    6.309011788822   -0.047976836318
 C   -1.961465344072    4.259651788822   -0.438446836318
 H   -2.990345344072    3.908601788822   -0.445176836318
 N   -0.853375344072    3.506951788822   -0.648906836318
LI   -0.318265344072    2.223501788822    0.949533163682
LI   -0.659005344072    1.792601788822   -1.692646836318
 N    0.954152917127   -3.921090407565    0.725546097946
 C   -0.125137404702   -4.809149316922    0.632441945952
 H   -1.154433179293   -4.495917933744    0.799017896800
 C    0.344230870646   -6.085448802410    0.365307176518
 H   -0.168371134607   -7.034960656288    0.235941584282
 N    1.712274865400   -5.961304745867    0.299303811900
 H    2.366998448806   -6.723146253040    0.124607769351
 C    2.062233894667   -4.673794424778    0.515082134543
 H    3.091122586058   -4.322741879483    0.521812191795
