20

 C   -0.275098479978    5.801349339983   -0.312748424692
 H    0.237501520022    6.750859339983   -0.183378424692
 C    0.194271520022    4.525039339983   -0.579878424692
 H    1.223571520022    4.211809339983   -0.746448424692
 N   -1.643138479978    5.677209339983   -0.246738424692
 H   -2.297868479978    6.439049339983   -0.072038424692
 C   -1.993108479978    4.389689339983   -0.462508424692
 H   -3.021988479978    4.038639339983   -0.469238424692
 N   -0.885018479978    3.636989339983   -0.672968424692
LI   -0.349908479978    2.353539339983    0.925471575308
LI   -0.690648479978    1.922639339983   -1.716708424692
 N    0.992322116439   -4.077946833648    0.754570135423
 C   -0.086968205389   -4.966005743006    0.661465983429
 H   -1.116263979980   -4.652774359827    0.828041934277
 C    0.382400069958   -6.242305228494    0.394331213995
 H   -0.130201935295   -7.191817082372    0.264965621759
 N    1.750444064713   -6.118161171951    0.328327849377
 H    2.405167648119   -6.880002679123    0.153631806828
 C    2.100403093980   -4.830650850862    0.544106172020
 H    3.129291785370   -4.479598305567    0.550836229272
