20

 C   -0.296193903916    5.888041040757   -0.328789483609
 H    0.216406096084    6.837551040757   -0.199419483609
 C    0.173176096084    4.611731040757   -0.595919483609
 H    1.202476096084    4.298501040757   -0.762489483609
 N   -1.664233903916    5.763901040757   -0.262779483609
 H   -2.318963903916    6.525741040757   -0.088079483609
 C   -2.014203903916    4.476381040757   -0.478549483609
 H   -3.043083903916    4.125331040757   -0.485279483609
 N   -0.906113903916    3.723681040757   -0.689009483609
LI   -0.371003903916    2.440231040757    0.909430516391
LI   -0.711743903916    2.009331040757   -1.732749483609
 N    1.017768249314   -4.182517784371    0.773919493741
 C   -0.061522072514   -5.070576693728    0.680815341747
 H   -1.090817847105   -4.757345310550    0.847391292595
 C    0.407846202834   -6.346876179216    0.413680572313
 H   -0.104755802420   -7.296388033094    0.284314980077
 N    1.775890197588   -6.222732122673    0.347677207695
 H    2.430613780994   -6.984573629846    0.172981165146
 C    2.125849226855   -4.935221801584    0.563455530338
 H    3.154737918245   -4.584169256289    0.570185587590
