20

 C   -0.306741615885    5.931386891144   -0.336810013067
 H    0.205858384115    6.880896891144   -0.207440013067
 C    0.162628384115    4.655076891144   -0.603940013067
 H    1.191928384115    4.341846891144   -0.770510013067
 N   -1.674781615885    5.807246891144   -0.270800013067
 H   -2.329511615885    6.569086891144   -0.096100013067
 C   -2.024751615885    4.519726891144   -0.486570013067
 H   -3.053631615885    4.168676891144   -0.493300013067
 N   -0.916661615885    3.767026891144   -0.697030013067
LI   -0.381551615885    2.483576891144    0.901409986933
LI   -0.722291615885    2.052676891144   -1.740770013067
 N    1.030491315752   -4.234803259732    0.783594172900
 C   -0.048799006077   -5.122862169089    0.690490020906
 H   -1.078094780668   -4.809630785911    0.857065971754
 C    0.420569269271   -6.399161654577    0.423355251472
 H   -0.092032735982   -7.348673508456    0.293989659236
 N    1.788613264026   -6.275017598035    0.357351886854
 H    2.443336847431   -7.036859105207    0.182655844305
 C    2.138572293292   -4.987507276945    0.573130209497
 H    3.167460984683   -4.636454731650    0.579860266749
