20

 C   -0.317289327854    5.974732741531   -0.344830542525
 H    0.195310672146    6.924242741531   -0.215460542525
 C    0.152080672146    4.698422741531   -0.611960542525
 H    1.181380672146    4.385192741531   -0.778530542525
 N   -1.685329327854    5.850592741531   -0.278820542525
 H   -2.340059327854    6.612432741531   -0.104120542525
 C   -2.035299327854    4.563072741531   -0.494590542525
 H   -3.064179327854    4.212022741531   -0.501320542525
 N   -0.927209327854    3.810372741531   -0.705050542525
LI   -0.392099327854    2.526922741531    0.893389457475
LI   -0.732839327854    2.096022741531   -1.748790542525
 N    1.043214382189   -4.287088735093    0.793268852059
 C   -0.036075939639   -5.175147644450    0.700164700065
 H   -1.065371714230   -4.861916261272    0.866740650913
 C    0.433292335709   -6.451447129938    0.433029930631
 H   -0.079309669545   -7.400958983817    0.303664338395
 N    1.801336330463   -6.327303073396    0.367026566013
 H    2.456059913869   -7.089144580568    0.192330523464
 C    2.151295359730   -5.039792752306    0.582804888656
 H    3.180184051121   -4.688740207012    0.589534945908
