20

 C   -0.327837039823    6.018078591918   -0.352851071983
 H    0.184762960177    6.967588591918   -0.223481071983
 C    0.141532960177    4.741768591918   -0.619981071983
 H    1.170832960177    4.428538591918   -0.786551071983
 N   -1.695877039823    5.893938591918   -0.286841071983
 H   -2.350607039823    6.655778591918   -0.112141071983
 C   -2.045847039823    4.606418591918   -0.502611071983
 H   -3.074727039823    4.255368591918   -0.509341071983
 N   -0.937757039823    3.853718591918   -0.713071071983
LI   -0.402647039823    2.570268591918    0.885368928017
LI   -0.743387039823    2.139368591918   -1.756811071983
 N    1.055937448627   -4.339374210454    0.802943531218
 C   -0.023352873201   -5.227433119812    0.709839379224
 H   -1.052648647793   -4.914201736633    0.876415330072
 C    0.446015402146   -6.503732605300    0.442704609790
 H   -0.066586603107   -7.453244459178    0.313339017554
 N    1.814059396901   -6.379588548757    0.376701245172
 H    2.468782980306   -7.141430055929    0.202005202623
 C    2.164018426168   -5.092078227668    0.592479567815
 H    3.192907117558   -4.741025682373    0.599209625067
