20

 C   -0.338384751792    6.061424442305   -0.360871601441
 H    0.174215248208    7.010934442305   -0.231501601441
 C    0.130985248208    4.785114442305   -0.628001601441
 H    1.160285248208    4.471884442305   -0.794571601441
 N   -1.706424751792    5.937284442305   -0.294861601441
 H   -2.361154751792    6.699124442305   -0.120161601441
 C   -2.056394751792    4.649764442305   -0.510631601441
 H   -3.085274751792    4.298714442305   -0.517361601441
 N   -0.948304751792    3.897064442305   -0.721091601441
LI   -0.413194751792    2.613614442305    0.877348398559
LI   -0.753934751792    2.182714442305   -1.764831601441
 N    1.068660515064   -4.391659685815    0.812618210377
 C   -0.010629806764   -5.279718595173    0.719514058383
 H   -1.039925581355   -4.966487211995    0.886090009231
 C    0.458738468584   -6.556018080661    0.452379288949
 H   -0.053863536669   -7.505529934539    0.323013696713
 N    1.826782463338   -6.431874024118    0.386375924331
 H    2.481506046744   -7.193715531290    0.211679881782
 C    2.176741492605   -5.144363703029    0.602154246974
 H    3.205630183996   -4.793311157734    0.608884304226
