20

 C   -0.391123311636    6.278153694240   -0.400974248732
 H    0.121476688364    7.227663694240   -0.271604248732
 C    0.078246688364    5.001843694240   -0.668104248732
 H    1.107546688364    4.688613694240   -0.834674248732
 N   -1.759163311636    6.154013694240   -0.334964248732
 H   -2.413893311636    6.915853694240   -0.160264248732
 C   -2.109133311636    4.866493694240   -0.550734248732
 H   -3.138013311636    4.515443694240   -0.557464248732
 N   -1.001043311636    4.113793694240   -0.761194248732
LI   -0.465933311636    2.830343694240    0.837245751268
LI   -0.806673311636    2.399443694240   -1.804934248732
 N    1.132275847252   -4.653087062621    0.860991606172
 C    0.052985525424   -5.541145971979    0.767887454178
 H   -0.976310249167   -5.227914588801    0.934463405026
 C    0.522353800772   -6.817445457467    0.500752684744
 H    0.009751795518   -7.766957311345    0.371387092508
 N    1.890397795526   -6.693301400924    0.434749320126
 H    2.545121378932   -7.455142908096    0.260053277577
 C    2.240356824793   -5.405791079835    0.650527642769
 H    3.269245516183   -5.054738534540    0.657257700021
