20

 C   -0.401671023605    6.321499544627   -0.408994778190
 H    0.110928976395    7.271009544627   -0.279624778190
 C    0.067698976395    5.045189544627   -0.676124778190
 H    1.096998976395    4.731959544627   -0.842694778190
 N   -1.769711023605    6.197359544627   -0.342984778190
 H   -2.424441023605    6.959199544627   -0.168284778190
 C   -2.119681023605    4.909839544627   -0.558754778190
 H   -3.148561023605    4.558789544627   -0.565484778190
 N   -1.011591023605    4.157139544627   -0.769214778190
LI   -0.476481023605    2.873689544627    0.829225221810
LI   -0.817221023605    2.442789544627   -1.812954778190
 N    1.144998913690   -4.705372537983    0.870666285331
 C    0.065708591861   -5.593431447340    0.777562133337
 H   -0.963587182730   -5.280200064162    0.944138084185
 C    0.535076867209   -6.869730932828    0.510427363903
 H    0.022474861956   -7.819242786706    0.381061771667
 N    1.903120861964   -6.745586876285    0.444423999285
 H    2.557844445369   -7.507428383458    0.269727956736
 C    2.253079891230   -5.458076555196    0.660202321928
 H    3.281968582621   -5.107024009901    0.666932379180
