20

 C   -0.412218735574    6.364845395014   -0.417015307648
 H    0.100381264426    7.314355395014   -0.287645307648
 C    0.057151264426    5.088535395014   -0.684145307648
 H    1.086451264426    4.775305395014   -0.850715307648
 N   -1.780258735574    6.240705395014   -0.351005307648
 H   -2.434988735574    7.002545395014   -0.176305307648
 C   -2.130228735574    4.953185395014   -0.566775307648
 H   -3.159108735574    4.602135395014   -0.573505307648
 N   -1.022138735574    4.200485395014   -0.777235307648
LI   -0.487028735574    2.917035395014    0.821204692352
LI   -0.827768735574    2.486135395014   -1.820975307648
 N    1.157721980127   -4.757658013344    0.880340964490
 C    0.078431658299   -5.645716922701    0.787236812496
 H   -0.950864116292   -5.332485539523    0.953812763344
 C    0.547799933647   -6.922016408189    0.520102043062
 H    0.035197928393   -7.871528262068    0.390736450826
 N    1.915843928401   -6.797872351647    0.454098678444
 H    2.570567511807   -7.559713858819    0.279402635895
 C    2.265802957668   -5.510362030557    0.669877001087
 H    3.294691649059   -5.159309485262    0.676607058339
