20

 C   -0.422766447543    6.408191245401   -0.425035837106
 H    0.089833552457    7.357701245401   -0.295665837106
 C    0.046603552457    5.131881245401   -0.692165837106
 H    1.075903552457    4.818651245401   -0.858735837106
 N   -1.790806447543    6.284051245401   -0.359025837106
 H   -2.445536447543    7.045891245401   -0.184325837106
 C   -2.140776447543    4.996531245401   -0.574795837106
 H   -3.169656447543    4.645481245401   -0.581525837106
 N   -1.032686447543    4.243831245401   -0.785255837106
LI   -0.497576447543    2.960381245401    0.813184162894
LI   -0.838316447543    2.529481245401   -1.828995837106
 N    1.170445046565   -4.809943488705    0.890015643649
 C    0.091154724736   -5.698002398062    0.796911491655
 H   -0.938141049855   -5.384771014884    0.963487442503
 C    0.560523000084   -6.974301883550    0.529776722221
 H    0.047920994831   -7.923813737429    0.400411129985
 N    1.928566994839   -6.850157827008    0.463773357603
 H    2.583290578244   -7.611999334180    0.289077315054
 C    2.278526024105   -5.562647505918    0.679551680246
 H    3.307414715496   -5.211594960624    0.686281737498
