20

 C   -0.433314159512    6.451537095788   -0.433056366565
 H    0.079285840488    7.401047095788   -0.303686366565
 C    0.036055840488    5.175227095788   -0.700186366565
 H    1.065355840488    4.861997095788   -0.866756366565
 N   -1.801354159512    6.327397095788   -0.367046366565
 H   -2.456084159512    7.089237095788   -0.192346366565
 C   -2.151324159512    5.039877095788   -0.582816366565
 H   -3.180204159512    4.688827095788   -0.589546366565
 N   -1.043234159512    4.287177095788   -0.793276366565
LI   -0.508124159512    3.003727095788    0.805163633435
LI   -0.848864159512    2.572827095788   -1.837016366565
 N    1.183168113002   -4.862228964066    0.899690322808
 C    0.103877791174   -5.750287873424    0.806586170814
 H   -0.925417983417   -5.437056490245    0.973162121662
 C    0.573246066522   -7.026587358912    0.539451401380
 H    0.060644061269   -7.976099212790    0.410085809144
 N    1.941290061276   -6.902443302369    0.473448036762
 H    2.596013644682   -7.664284809541    0.298751994213
 C    2.291249090543   -5.614932981280    0.689226359405
 H    3.320137781934   -5.263880435985    0.695956416657
