20

 C   -0.464957295418    6.581574646949   -0.457117954939
 H    0.047642704582    7.531084646949   -0.327747954939
 C    0.004412704582    5.305264646949   -0.724247954939
 H    1.033712704582    4.992034646949   -0.890817954939
 N   -1.832997295418    6.457434646949   -0.391107954939
 H   -2.487727295418    7.219274646949   -0.216407954939
 C   -2.182967295418    5.169914646949   -0.606877954939
 H   -3.211847295418    4.818864646949   -0.613607954939
 N   -1.074877295418    4.417214646949   -0.817337954939
LI   -0.539767295418    3.133764646949    0.781102045061
LI   -0.880507295418    2.702864646949   -1.861077954939
 N    1.221337312315   -5.019085390150    0.928714360285
 C    0.142046990487   -5.907144299507    0.835610208291
 H   -0.887248784105   -5.593912916329    1.002186159139
 C    0.611415265834   -7.183443784995    0.568475438857
 H    0.098813260581   -8.132955638874    0.439109846621
 N    1.979459260589   -7.059299728453    0.502472074239
 H    2.634182843995   -7.821141235625    0.327776031690
 C    2.329418289856   -5.771789407363    0.718250396882
 H    3.358306981246   -5.420736862068    0.724980454134
