20

 C   -0.507148143294    6.754958048497   -0.489200072772
 H    0.005451856706    7.704468048497   -0.359830072772
 C   -0.037778143294    5.478648048497   -0.756330072772
 H    0.991521856706    5.165418048497   -0.922900072772
 N   -1.875188143294    6.630818048497   -0.423190072772
 H   -2.529918143294    7.392658048497   -0.248490072772
 C   -2.225158143294    5.343298048497   -0.638960072772
 H   -3.254038143294    4.992248048497   -0.645690072772
 N   -1.117068143294    4.590598048497   -0.849420072772
LI   -0.581958143294    3.307148048497    0.749019927228
LI   -0.922698143294    2.876248048497   -1.893160072772
 N    1.272229578065   -5.228227291595    0.967413076921
 C    0.192939256237   -6.116286200952    0.874308924927
 H   -0.836356518354   -5.803054817774    1.040884875775
 C    0.662307531585   -7.392585686440    0.607174155493
 H    0.149705526331   -8.342097540318    0.477808563257
 N    2.030351526339   -7.268441629897    0.541170790875
 H    2.685075109745   -8.030283137070    0.366474748326
 C    2.380310555606   -5.980931308808    0.756949113518
 H    3.409199246996   -5.629878763513    0.763679170770
