20

 C   -0.528243567231    6.841649749271   -0.505241131688
 H   -0.015643567231    7.791159749271   -0.375871131688
 C   -0.058873567231    5.565339749271   -0.772371131688
 H    0.970426432769    5.252109749271   -0.938941131688
 N   -1.896283567231    6.717509749271   -0.439231131688
 H   -2.551013567231    7.479349749271   -0.264531131688
 C   -2.246253567231    5.429989749271   -0.655001131688
 H   -3.275133567231    5.078939749271   -0.661731131688
 N   -1.138163567231    4.677289749271   -0.865461131688
LI   -0.603053567231    3.393839749271    0.732978868312
LI   -0.943793567231    2.962939749271   -1.909201131688
 N    1.297675710940   -5.332798242317    0.986762435239
 C    0.218385389112   -6.220857151674    0.893658283245
 H   -0.810910385479   -5.907625768496    1.060234234093
 C    0.687753664460   -7.497156637162    0.626523513811
 H    0.175151659206   -8.446668491041    0.497157921575
 N    2.055797659214   -7.373012580620    0.560520149193
 H    2.710521242620   -8.134854087792    0.385824106644
 C    2.405756688481   -6.085502259530    0.776298471836
 H    3.434645379872   -5.734449714236    0.783028529088
