20

 C   -0.538791279200    6.884995599658   -0.513261661146
 H   -0.026191279200    7.834505599658   -0.383891661146
 C   -0.069421279200    5.608685599658   -0.780391661146
 H    0.959878720800    5.295455599658   -0.946961661146
 N   -1.906831279200    6.760855599658   -0.447251661146
 H   -2.561561279200    7.522695599658   -0.272551661146
 C   -2.256801279200    5.473335599658   -0.663021661146
 H   -3.285681279200    5.122285599658   -0.669751661146
 N   -1.148711279200    4.720635599658   -0.873481661146
LI   -0.613601279200    3.437185599658    0.724958338854
LI   -0.954341279200    3.006285599658   -1.917221661146
 N    1.310398777378   -5.385083717678    0.996437114398
 C    0.231108455550   -6.273142627036    0.903332962404
 H   -0.798187319042   -5.959911243857    1.069908913252
 C    0.700476730897   -7.549442112524    0.636198192970
 H    0.187874725644   -8.498953966402    0.506832600734
 N    2.068520725652   -7.425298055981    0.570194828352
 H    2.723244309057   -8.187139563153    0.395498785803
 C    2.418479754919   -6.137787734892    0.785973150995
 H    3.447368446309   -5.786735189597    0.792703208247
