20

 C   -0.549338991169    6.928341450045   -0.521282190604
 H   -0.036738991169    7.877851450045   -0.391912190604
 C   -0.079968991169    5.652031450045   -0.788412190604
 H    0.949331008831    5.338801450045   -0.954982190604
 N   -1.917378991169    6.804201450045   -0.455272190604
 H   -2.572108991169    7.566041450045   -0.280572190604
 C   -2.267348991169    5.516681450045   -0.671042190604
 H   -3.296228991169    5.165631450045   -0.677772190604
 N   -1.159258991169    4.763981450045   -0.881502190604
LI   -0.624148991169    3.480531450045    0.716937809396
LI   -0.964888991169    3.049631450045   -1.925242190604
 N    1.323121843815   -5.437369193039    1.006111793557
 C    0.243831521987   -6.325428102397    0.913007641563
 H   -0.785464252604   -6.012196719219    1.079583592411
 C    0.713199797335   -7.601727587885    0.645872872129
 H    0.200597792082   -8.551239441763    0.516507279893
 N    2.081243792089   -7.477583531342    0.579869507511
 H    2.735967375495   -8.239425038514    0.405173464962
 C    2.431202821356   -6.190073210253    0.795647830154
 H    3.460091512747   -5.839020664958    0.802377887406
