20

 C   -0.580982127076    7.058379001206   -0.545343778979
 H   -0.068382127076    8.007889001206   -0.415973778979
 C   -0.111612127076    5.782069001206   -0.812473778979
 H    0.917687872924    5.468839001206   -0.979043778979
 N   -1.949022127076    6.934239001206   -0.479333778979
 H   -2.603752127076    7.696079001206   -0.304633778979
 C   -2.298992127076    5.646719001206   -0.695103778979
 H   -3.327872127076    5.295669001206   -0.701833778979
 N   -1.190902127076    4.894019001206   -0.905563778979
LI   -0.655792127076    3.610569001206    0.692876221021
LI   -0.996532127076    3.179669001206   -1.949303778979
 N    1.361291043128   -5.594225619123    1.035135831034
 C    0.282000721300   -6.482284528480    0.942031679040
 H   -0.747295053291   -6.169053145302    1.108607629888
 C    0.751368996647   -7.758584013968    0.674896909606
 H    0.238766991394   -8.708095867847    0.545531317370
 N    2.119412991402   -7.634439957426    0.608893544988
 H    2.774136574808   -8.396281464598    0.434197502439
 C    2.469372020669   -6.346929636336    0.824671867631
 H    3.498260712059   -5.995877091042    0.831401924884
