20

 C   -0.602077551014    7.145070701980   -0.561384837895
 H   -0.089477551014    8.094580701980   -0.432014837895
 C   -0.132707551014    5.868760701980   -0.828514837895
 H    0.896592448986    5.555530701980   -0.995084837895
 N   -1.970117551014    7.020930701980   -0.495374837895
 H   -2.624847551014    7.782770701980   -0.320674837895
 C   -2.320087551014    5.733410701980   -0.711144837895
 H   -3.348967551014    5.382360701980   -0.717874837895
 N   -1.211997551014    4.980710701980   -0.921604837895
LI   -0.676887551014    3.697260701980    0.676835162105
LI   -1.017627551014    3.266360701980   -1.965344837895
 N    1.386737176003   -5.698796569845    1.054485189352
 C    0.307446854175   -6.586855479203    0.961381037358
 H   -0.721848920416   -6.273624096025    1.127956988206
 C    0.776815129523   -7.863154964691    0.694246267924
 H    0.264213124269   -8.812666818569    0.564880675688
 N    2.144859124277   -7.739010908148    0.628242903306
 H    2.799582707683   -8.500852415320    0.453546860757
 C    2.494818153544   -6.451500587059    0.844021225949
 H    3.523706844934   -6.100448041764    0.850751283202
