8

 C    0.057892284133   -1.807986826110    0.000000000000
 H    1.093392284133   -2.184074826110    0.000000000000
 H   -0.475307715867   -2.188689826110    0.888337000000
 H   -0.475307715867   -2.188689826110   -0.888337000000
 C    0.016126284133   -0.251902826110    0.000000000000
 O   -1.151069715867    0.254320173890    0.000000000000
 O    1.140197284133    0.343515173890    0.000000000000
NA   -0.037330226208    0.946905916560    0.000000000000
