8

 C    0.061638951133   -1.892009092567    0.000000000000
 H    1.097138951133   -2.268097092567    0.000000000000
 H   -0.471561048867   -2.272712092567    0.888337000000
 H   -0.471561048867   -2.272712092567   -0.888337000000
 C    0.019872951133   -0.335925092567    0.000000000000
 O   -1.147323048867    0.170297907433    0.000000000000
 O    1.143943951133    0.259492907433    0.000000000000
NA   -0.046947686793    1.162585835770    0.000000000000
