8

 C    0.064136729133   -1.948023936872    0.000000000000
 H    1.099636729133   -2.324111936872    0.000000000000
 H   -0.469063270867   -2.328726936872    0.888337000000
 H   -0.469063270867   -2.328726936872   -0.888337000000
 C    0.022370729133   -0.391939936872    0.000000000000
 O   -1.144825270867    0.114283063128    0.000000000000
 O    1.146441729133    0.203478063128    0.000000000000
NA   -0.053359327183    1.306372448577    0.000000000000
