8

 C    0.065385618134   -1.976031359024    0.000000000000
 H    1.100885618134   -2.352119359024    0.000000000000
 H   -0.467814381866   -2.356734359024    0.888337000000
 H   -0.467814381866   -2.356734359024   -0.888337000000
 C    0.023619618134   -0.419947359024    0.000000000000
 O   -1.143576381866    0.086275640976    0.000000000000
 O    1.147690618134    0.175470640976    0.000000000000
NA   -0.056565147378    1.378265754981    0.000000000000
