8

 C    0.066634507134   -2.004038781177    0.000000000000
 H    1.102134507134   -2.380126781177    0.000000000000
 H   -0.466565492866   -2.384741781177    0.888337000000
 H   -0.466565492866   -2.384741781177   -0.888337000000
 C    0.024868507134   -0.447954781177    0.000000000000
 O   -1.142327492866    0.058268218823    0.000000000000
 O    1.148939507134    0.147463218823    0.000000000000
NA   -0.059770967574    1.450159061384    0.000000000000
