8

 C    0.167794516140   -4.272639975515    0.000000000000
 H    1.203294516140   -4.648727975515    0.000000000000
 H   -0.365405483860   -4.653342975515    0.888337000000
 H   -0.365405483860   -4.653342975515   -0.888337000000
 C    0.126028516140   -2.716555975515    0.000000000000
 O   -1.041167483860   -2.210332975515    0.000000000000
 O    1.250099516140   -2.121137975515    0.000000000000
NA   -0.319442403371    7.273516880069    0.000000000000
