8

 C    0.071630063134   -2.116068469786    0.000000000000
 H    1.107130063134   -2.492156469786    0.000000000000
 H   -0.461569936866   -2.496771469786    0.888337000000
 H   -0.461569936866   -2.496771469786   -0.888337000000
 C    0.029864063134   -0.559984469786    0.000000000000
 O   -1.137331936866   -0.053761469786    0.000000000000
 O    1.153935063134    0.035433530214    0.000000000000
NA   -0.072594248354    1.737732286998    0.000000000000
