8

 C    0.074127841134   -2.172083314091    0.000000000000
 H    1.109627841134   -2.548171314091    0.000000000000
 H   -0.459072158866   -2.552786314091    0.888337000000
 H   -0.459072158866   -2.552786314091   -0.888337000000
 C    0.032361841134   -0.615999314091    0.000000000000
 O   -1.134834158866   -0.109776314091    0.000000000000
 O    1.156432841134   -0.020581314091    0.000000000000
NA   -0.079005888744    1.881518899805    0.000000000000
