8

 C    0.084118953135   -2.396142691309    0.000000000000
 H    1.119618953135   -2.772230691309    0.000000000000
 H   -0.449081046865   -2.776845691309    0.888337000000
 H   -0.449081046865   -2.776845691309   -0.888337000000
 C    0.042352953135   -0.840058691309    0.000000000000
 O   -1.124843046865   -0.333835691309    0.000000000000
 O    1.166423953135   -0.244640691309    0.000000000000
NA   -0.104652450304    2.456665351033    0.000000000000
