8

 C    0.089114509135   -2.508172379918    0.000000000000
 H    1.124614509135   -2.884260379918    0.000000000000
 H   -0.444085490865   -2.888875379918    0.888337000000
 H   -0.444085490865   -2.888875379918   -0.888337000000
 C    0.047348509135   -0.952088379918    0.000000000000
 O   -1.119847490865   -0.445865379918    0.000000000000
 O    1.171419509135   -0.356670379918    0.000000000000
NA   -0.117475731084    2.744238576647    0.000000000000
