8

 C    0.090363398135   -2.536179802071    0.000000000000
 H    1.125863398135   -2.912267802071    0.000000000000
 H   -0.442836601865   -2.916882802071    0.888337000000
 H   -0.442836601865   -2.916882802071   -0.888337000000
 C    0.048597398135   -0.980095802071    0.000000000000
 O   -1.118598601865   -0.473872802071    0.000000000000
 O    1.172668398135   -0.384677802071    0.000000000000
NA   -0.120681551279    2.816131883051    0.000000000000
