8

 C    0.091612287135   -2.564187224223    0.000000000000
 H    1.127112287135   -2.940275224223    0.000000000000
 H   -0.441587712865   -2.944890224223    0.888337000000
 H   -0.441587712865   -2.944890224223   -0.888337000000
 C    0.049846287135   -1.008103224223    0.000000000000
 O   -1.117349712865   -0.501880224223    0.000000000000
 O    1.173917287135   -0.412685224223    0.000000000000
NA   -0.123887371474    2.888025189454    0.000000000000
