8

 C    0.094110065135   -2.620202068528    0.000000000000
 H    1.129610065135   -2.996290068528    0.000000000000
 H   -0.439089934865   -3.000905068528    0.888337000000
 H   -0.439089934865   -3.000905068528   -0.888337000000
 C    0.052344065135   -1.064118068528    0.000000000000
 O   -1.114851934865   -0.557895068528    0.000000000000
 O    1.176415065135   -0.468700068528    0.000000000000
NA   -0.130299011864    3.031811802262    0.000000000000
