8

 C    0.100354510136   -2.760239179289    0.000000000000
 H    1.135854510136   -3.136327179289    0.000000000000
 H   -0.432845489864   -3.140942179289    0.888337000000
 H   -0.432845489864   -3.140942179289   -0.888337000000
 C    0.058588510136   -1.204155179289    0.000000000000
 O   -1.108607489864   -0.697932179289    0.000000000000
 O    1.182659510136   -0.608737179289    0.000000000000
NA   -0.146328112839    3.391278334279    0.000000000000
