8

 C    0.106598955136   -2.900276290051    0.000000000000
 H    1.142098955136   -3.276364290051    0.000000000000
 H   -0.426601044864   -3.280979290051    0.888337000000
 H   -0.426601044864   -3.280979290051   -0.888337000000
 C    0.064832955136   -1.344192290051    0.000000000000
 O   -1.102363044864   -0.837969290051    0.000000000000
 O    1.188903955136   -0.748774290051    0.000000000000
NA   -0.162357213815    3.750744866297    0.000000000000
