8

 C    0.109096733136   -2.956291134356    0.000000000000
 H    1.144596733136   -3.332379134356    0.000000000000
 H   -0.424103266864   -3.336994134356    0.888337000000
 H   -0.424103266864   -3.336994134356   -0.888337000000
 C    0.067330733136   -1.400207134356    0.000000000000
 O   -1.099865266864   -0.893984134356    0.000000000000
 O    1.191401733136   -0.804789134356    0.000000000000
NA   -0.168768854205    3.894531479104    0.000000000000
