8

 C    0.114092289137   -3.068320822965    0.000000000000
 H    1.149592289137   -3.444408822965    0.000000000000
 H   -0.419107710863   -3.449023822965    0.888337000000
 H   -0.419107710863   -3.449023822965   -0.888337000000
 C    0.072326289137   -1.512236822965    0.000000000000
 O   -1.094869710863   -1.006013822965    0.000000000000
 O    1.196397289137   -0.916818822965    0.000000000000
NA   -0.181592134985    4.182104704718    0.000000000000
