8

 C    0.115341178137   -3.096328245117    0.000000000000
 H    1.150841178137   -3.472416245117    0.000000000000
 H   -0.417858821863   -3.477031245117    0.888337000000
 H   -0.417858821863   -3.477031245117   -0.888337000000
 C    0.073575178137   -1.540244245117    0.000000000000
 O   -1.093620821863   -1.034021245117    0.000000000000
 O    1.197646178137   -0.944826245117    0.000000000000
NA   -0.184797955180    4.253998011121    0.000000000000
