8

 C    0.117838956137   -3.152343089422    0.000000000000
 H    1.153338956137   -3.528431089422    0.000000000000
 H   -0.415361043863   -3.533046089422    0.888337000000
 H   -0.415361043863   -3.533046089422   -0.888337000000
 C    0.076072956137   -1.596259089422    0.000000000000
 O   -1.091123043863   -1.090036089422    0.000000000000
 O    1.200143956137   -1.000841089422    0.000000000000
NA   -0.191209595570    4.397784623928    0.000000000000
