8

 C    0.119087845137   -3.180350511574    0.000000000000
 H    1.154587845137   -3.556438511574    0.000000000000
 H   -0.414112154863   -3.561053511574    0.888337000000
 H   -0.414112154863   -3.561053511574   -0.888337000000
 C    0.077321845137   -1.624266511574    0.000000000000
 O   -1.089874154863   -1.118043511574    0.000000000000
 O    1.201392845137   -1.028848511574    0.000000000000
NA   -0.194415415765    4.469677930332    0.000000000000
