8

 C    0.125332290137   -3.320387622336    0.000000000000
 H    1.160832290137   -3.696475622336    0.000000000000
 H   -0.407867709863   -3.701090622336    0.888337000000
 H   -0.407867709863   -3.701090622336   -0.888337000000
 C    0.083566290137   -1.764303622336    0.000000000000
 O   -1.083629709863   -1.258080622336    0.000000000000
 O    1.207637290137   -1.168885622336    0.000000000000
NA   -0.210444516740    4.829144462349    0.000000000000
