8

 C    0.126581179137   -3.348395044488    0.000000000000
 H    1.162081179137   -3.724483044488    0.000000000000
 H   -0.406618820863   -3.729098044488    0.888337000000
 H   -0.406618820863   -3.729098044488   -0.888337000000
 C    0.084815179137   -1.792311044488    0.000000000000
 O   -1.082380820863   -1.286088044488    0.000000000000
 O    1.208886179137   -1.196893044488    0.000000000000
NA   -0.213650336935    4.901037768753    0.000000000000
