8

 C    0.130327846138   -3.432417310945    0.000000000000
 H    1.165827846138   -3.808505310945    0.000000000000
 H   -0.402872153862   -3.813120310945    0.888337000000
 H   -0.402872153862   -3.813120310945   -0.888337000000
 C    0.088561846138   -1.876333310945    0.000000000000
 O   -1.078634153862   -1.370110310945    0.000000000000
 O    1.212632846138   -1.280915310945    0.000000000000
NA   -0.223267797520    5.116717687963    0.000000000000
