8

 C    0.134074513138   -3.516439577402    0.000000000000
 H    1.169574513138   -3.892527577402    0.000000000000
 H   -0.399125486862   -3.897142577402    0.888337000000
 H   -0.399125486862   -3.897142577402   -0.888337000000
 C    0.092308513138   -1.960355577402    0.000000000000
 O   -1.074887486862   -1.454132577402    0.000000000000
 O    1.216379513138   -1.364937577402    0.000000000000
NA   -0.232885258105    5.332397607174    0.000000000000
