8

 C    0.135323402138   -3.544446999554    0.000000000000
 H    1.170823402138   -3.920534999554    0.000000000000
 H   -0.397876597862   -3.925149999554    0.888337000000
 H   -0.397876597862   -3.925149999554   -0.888337000000
 C    0.093557402138   -1.988362999554    0.000000000000
 O   -1.073638597862   -1.482139999554    0.000000000000
 O    1.217628402138   -1.392944999554    0.000000000000
NA   -0.236091078300    5.404290913578    0.000000000000
