8

 C    0.136572291138   -3.572454421707    0.000000000000
 H    1.172072291138   -3.948542421707    0.000000000000
 H   -0.396627708862   -3.953157421707    0.888337000000
 H   -0.396627708862   -3.953157421707   -0.888337000000
 C    0.094806291138   -2.016370421707    0.000000000000
 O   -1.072389708862   -1.510147421707    0.000000000000
 O    1.218877291138   -1.420952421707    0.000000000000
NA   -0.239296898495    5.476184219981    0.000000000000
