8

 C    0.140318958138   -3.656476688164    0.000000000000
 H    1.175818958138   -4.032564688164    0.000000000000
 H   -0.392881041862   -4.037179688164    0.888337000000
 H   -0.392881041862   -4.037179688164   -0.888337000000
 C    0.098552958138   -2.100392688164    0.000000000000
 O   -1.068643041862   -1.594169688164    0.000000000000
 O    1.222623958138   -1.504974688164    0.000000000000
NA   -0.248914359080    5.691864139192    0.000000000000
