8

 C    0.146563403139   -3.796513798925    0.000000000000
 H    1.182063403139   -4.172601798925    0.000000000000
 H   -0.386636596861   -4.177216798925    0.888337000000
 H   -0.386636596861   -4.177216798925   -0.888337000000
 C    0.104797403139   -2.240429798925    0.000000000000
 O   -1.062398596861   -1.734206798925    0.000000000000
 O    1.228868403139   -1.645011798925    0.000000000000
NA   -0.264943460056    6.051330671209    0.000000000000
