8

 C    0.147812292139   -3.824521221078    0.000000000000
 H    1.183312292139   -4.200609221078    0.000000000000
 H   -0.385387707861   -4.205224221078    0.888337000000
 H   -0.385387707861   -4.205224221078   -0.888337000000
 C    0.106046292139   -2.268437221078    0.000000000000
 O   -1.061149707861   -1.762214221078    0.000000000000
 O    1.230117292139   -1.673019221078    0.000000000000
NA   -0.268149280251    6.123223977613    0.000000000000
