8

 C    0.150310070139   -3.880536065382    0.000000000000
 H    1.185810070139   -4.256624065382    0.000000000000
 H   -0.382889929861   -4.261239065382    0.888337000000
 H   -0.382889929861   -4.261239065382   -0.888337000000
 C    0.108544070139   -2.324452065382    0.000000000000
 O   -1.058651929861   -1.818229065382    0.000000000000
 O    1.232615070139   -1.729034065382    0.000000000000
NA   -0.274560920641    6.267010590420    0.000000000000
