8

 C    0.152807848139   -3.936550909687    0.000000000000
 H    1.188307848139   -4.312638909687    0.000000000000
 H   -0.380392151861   -4.317253909687    0.888337000000
 H   -0.380392151861   -4.317253909687   -0.888337000000
 C    0.111041848139   -2.380466909687    0.000000000000
 O   -1.056154151861   -1.874243909687    0.000000000000
 O    1.235112848139   -1.785048909687    0.000000000000
NA   -0.280972561031    6.410797203227    0.000000000000
