8

 C    0.154056737139   -3.964558331839    0.000000000000
 H    1.189556737139   -4.340646331839    0.000000000000
 H   -0.379143262861   -4.345261331839    0.888337000000
 H   -0.379143262861   -4.345261331839   -0.888337000000
 C    0.112290737139   -2.408474331839    0.000000000000
 O   -1.054905262861   -1.902251331839    0.000000000000
 O    1.236361737139   -1.813056331839    0.000000000000
NA   -0.284178381226    6.482690509630    0.000000000000
