8

 C    0.155305626139   -3.992565753991    0.000000000000
 H    1.190805626139   -4.368653753991    0.000000000000
 H   -0.377894373861   -4.373268753991    0.888337000000
 H   -0.377894373861   -4.373268753991   -0.888337000000
 C    0.113539626139   -2.436481753991    0.000000000000
 O   -1.053656373861   -1.930258753991    0.000000000000
 O    1.237610626139   -1.841063753991    0.000000000000
NA   -0.287384201421    6.554583816034    0.000000000000
