8

 C    0.157803404139   -4.048580598296    0.000000000000
 H    1.193303404139   -4.424668598296    0.000000000000
 H   -0.375396595861   -4.429283598296    0.888337000000
 H   -0.375396595861   -4.429283598296   -0.888337000000
 C    0.116037404139   -2.492496598296    0.000000000000
 O   -1.051158595861   -1.986273598296    0.000000000000
 O    1.240108404139   -1.897078598296    0.000000000000
NA   -0.293795841811    6.698370428841    0.000000000000
