8

 C    0.159052293140   -4.076588020448    0.000000000000
 H    1.194552293140   -4.452676020448    0.000000000000
 H   -0.374147706860   -4.457291020448    0.888337000000
 H   -0.374147706860   -4.457291020448   -0.888337000000
 C    0.117286293140   -2.520504020448    0.000000000000
 O   -1.049909706860   -2.014281020448    0.000000000000
 O    1.241357293140   -1.925086020448    0.000000000000
NA   -0.297001662006    6.770263735244    0.000000000000
