8

 C    0.160301182140   -4.104595442601    0.000000000000
 H    1.195801182140   -4.480683442601    0.000000000000
 H   -0.372898817860   -4.485298442601    0.888337000000
 H   -0.372898817860   -4.485298442601   -0.888337000000
 C    0.118535182140   -2.548511442601    0.000000000000
 O   -1.048660817860   -2.042288442601    0.000000000000
 O    1.242606182140   -1.953093442601    0.000000000000
NA   -0.300207482201    6.842157041648    0.000000000000
