8

 C    0.165296738140   -4.216625131210    0.000000000000
 H    1.200796738140   -4.592713131210    0.000000000000
 H   -0.367903261860   -4.597328131210    0.888337000000
 H   -0.367903261860   -4.597328131210   -0.888337000000
 C    0.123530738140   -2.660541131210    0.000000000000
 O   -1.043665261860   -2.154318131210    0.000000000000
 O    1.247601738140   -2.065123131210    0.000000000000
NA   -0.313030762981    7.129730267262    0.000000000000
