13

 N   -2.041842094383    1.448052236708    0.000539413499
 C   -0.868102511300    2.175424428218    0.000226934329
 H   -0.985819371363    3.260742887262    0.000111086770
 C   -2.087618067463    0.054840444841    0.000154358930
 O   -3.139206236019   -0.579262869000    0.000497726034
 N   -0.827177526322   -0.528629611291    0.000571262252
 H   -0.817361729199   -1.546914723157    0.000543958157
 C    0.434076762911    0.107425875672    0.000588357088
 O    1.467769690979   -0.561837958744   -0.000157308576
 C    0.352597971151    1.567972937062    0.000088459641
 H    1.275998109453    2.145033195928   -0.000252217136
 H   -2.945579270331    1.907706358068    0.000337761899
 K    2.475074228550   -1.214016646373   -0.000883938687
