13

 N   -2.128488147324    1.504151169045    0.000601916574
 C   -0.954748564241    2.231523360555    0.000289437404
 H   -1.072465424304    3.316841819599    0.000173589845
 C   -2.174264120404    0.110939377178    0.000216862005
 O   -3.225852288960   -0.523163936663    0.000560229109
 N   -0.913823579263   -0.472530678954    0.000633765327
 H   -0.904007782140   -1.490815790820    0.000606461232
 C    0.347430709970    0.163524808009    0.000650860163
 O    1.381123638038   -0.505739026407   -0.000094805501
 C    0.265951918210    1.624071869399    0.000150962716
 H    1.189352056512    2.201132128265   -0.000189714061
 H   -3.032225323272    1.963805290405    0.000400264974
 K    2.724196354799   -1.375310609913   -0.001063645649
