13

 N   -2.258457226735    1.588299567549    0.000695671186
 C   -1.084717643652    2.315671759059    0.000383192016
 H   -1.202434503715    3.400990218103    0.000267344457
 C   -2.304233199815    0.195087775682    0.000310616617
 O   -3.355821368371   -0.439015538159    0.000653983721
 N   -1.043792658674   -0.388382280450    0.000727519939
 H   -1.033976861551   -1.406667392316    0.000700215844
 C    0.217461630559    0.247673206513    0.000744614775
 O    1.251154558627   -0.421590627903   -0.000001050889
 C    0.135982838799    1.708220267903    0.000244717328
 H    1.059382977101    2.285280526769   -0.000095959449
 H   -3.162194402683    2.047953688909    0.000494019586
 K    3.097879544173   -1.617251555223   -0.001333206092
