13

 N   -2.323441766441    1.630373766802    0.000742548492
 C   -1.149702183358    2.357745958312    0.000430069322
 H   -1.267419043421    3.443064417356    0.000314221763
 C   -2.369217739521    0.237161974935    0.000357493923
 O   -3.420805908077   -0.396941338906    0.000700861027
 N   -1.108777198380   -0.346308081197    0.000774397245
 H   -1.098961401257   -1.364593193063    0.000747093150
 C    0.152477090853    0.289747405766    0.000791492081
 O    1.186170018921   -0.379516428650    0.000045826417
 C    0.070998299093    1.750294467156    0.000291594634
 H    0.994398437395    2.327354726022   -0.000049082143
 H   -3.227178942389    2.090027888162    0.000540896892
 K    3.284721138860   -1.738222027878   -0.001467986313
