13

 N   -2.366764792912    1.658423232970    0.000773800030
 C   -1.193025209829    2.385795424480    0.000461320860
 H   -1.310742069892    3.471113883524    0.000345473301
 C   -2.412540765992    0.265211441103    0.000388745461
 O   -3.464128934548   -0.368891872738    0.000732112565
 N   -1.152100224851   -0.318258615029    0.000805648783
 H   -1.142284427728   -1.336543726895    0.000778344688
 C    0.109154064382    0.317796871934    0.000822743619
 O    1.142846992450   -0.351466962482    0.000077077955
 C    0.027675272622    1.778343933324    0.000322846172
 H    0.951075410924    2.355404192190   -0.000017830605
 H   -3.270501968860    2.118077354330    0.000572148430
 K    3.409282201985   -1.818869009648   -0.001557839794
