13

 N   -2.388426306147    1.672447966054    0.000789425799
 C   -1.214686723064    2.399820157564    0.000476946629
 H   -1.332403583127    3.485138616608    0.000361099070
 C   -2.434202279227    0.279236174187    0.000404371230
 O   -3.485790447783   -0.354867139654    0.000747738334
 N   -1.173761738086   -0.304233881945    0.000821274552
 H   -1.163945940963   -1.322518993811    0.000793970457
 C    0.087492551147    0.331821605018    0.000838369388
 O    1.121185479215   -0.337442229398    0.000092703724
 C    0.006013759387    1.792368666408    0.000338471941
 H    0.929413897689    2.369428925274   -0.000002204836
 H   -3.292163482095    2.132102087414    0.000587774199
 K    3.471562733547   -1.859192500533   -0.001602766535
