13

 N   -2.453410845853    1.714522165306    0.000836303105
 C   -1.279671262770    2.441894356816    0.000523823935
 H   -1.397388122833    3.527212815860    0.000407976376
 C   -2.499186818933    0.321310373439    0.000451248536
 O   -3.550774987489   -0.312792940402    0.000794615640
 N   -1.238746277792   -0.262159682693    0.000868151858
 H   -1.228930480669   -1.280444794559    0.000840847763
 C    0.022508011441    0.373895804270    0.000885246694
 O    1.056200939509   -0.295368030146    0.000139581030
 C   -0.058970780319    1.834442865660    0.000385349247
 H    0.864429357983    2.411503124526    0.000044672470
 H   -3.357148021801    2.174176286666    0.000634651505
 K    3.658404328234   -1.980162973188   -0.001737546756
