13

 N   -2.583379925264    1.798670563811    0.000930057717
 C   -1.409640342181    2.526042755321    0.000617578547
 H   -1.527357202244    3.611361214365    0.000501730988
 C   -2.629155898344    0.405458771944    0.000545003148
 O   -3.680744066900   -0.228644541897    0.000888370252
 N   -1.368715357203   -0.178011284188    0.000961906470
 H   -1.358899560080   -1.196296396054    0.000934602375
 C   -0.107461067970    0.458044202775    0.000979001306
 O    0.926231860098   -0.211219631641    0.000233335642
 C   -0.188939859730    1.918591264165    0.000479103859
 H    0.734460278572    2.495651523031    0.000138427082
 H   -3.487117101212    2.258324685171    0.000728406117
 K    4.032087517608   -2.222103918498   -0.002007107199
