13

 N   -2.605041438499    1.812695296895    0.000945683486
 C   -1.431301855416    2.540067488405    0.000633204316
 H   -1.549018715479    3.625385947449    0.000517356757
 C   -2.650817411579    0.419483505028    0.000560628917
 O   -3.702405580135   -0.214619808813    0.000903996021
 N   -1.390376870438   -0.163986551104    0.000977532239
 H   -1.380561073315   -1.182271662970    0.000950228144
 C   -0.129122581205    0.472068935859    0.000994627075
 O    0.904570346863   -0.197194898557    0.000248961411
 C   -0.210601372965    1.932615997249    0.000494729628
 H    0.712798765337    2.509676256115    0.000154052851
 H   -3.508778614447    2.272349418255    0.000744031886
 K    4.094368049170   -2.262427409383   -0.002052033940
