13

 N   -2.626702951735    1.826720029979    0.000961309255
 C   -1.452963368652    2.554092221489    0.000648830085
 H   -1.570680228715    3.639410680533    0.000532982526
 C   -2.672478924815    0.433508238112    0.000576254686
 O   -3.724067093371   -0.200595075729    0.000919621790
 N   -1.412038383674   -0.149961818020    0.000993158008
 H   -1.402222586551   -1.168246929886    0.000965853913
 C   -0.150784094441    0.486093668943    0.001010252844
 O    0.882908833627   -0.183170165473    0.000264587180
 C   -0.232262886201    1.946640730333    0.000510355397
 H    0.691137252101    2.523700989199    0.000169678620
 H   -3.530440127683    2.286374151339    0.000759657655
 K    4.156648580732   -2.302750900268   -0.002096960680
