13

 N   -2.735010517911    1.896843695400    0.001039438099
 C   -1.561270934828    2.624215886910    0.000726958929
 H   -1.678987794891    3.709534345954    0.000611111370
 C   -2.780786490991    0.503631903533    0.000654383530
 O   -3.832374659547   -0.130471410308    0.000997750634
 N   -1.520345949850   -0.079838152599    0.001071286852
 H   -1.510530152727   -1.098123264465    0.001043982757
 C   -0.259091660617    0.556217334364    0.001088381688
 O    0.774601267451   -0.113046500052    0.000342716024
 C   -0.340570452377    2.016764395754    0.000588484241
 H    0.582829685925    2.593824654620    0.000247807464
 H   -3.638747693859    2.356497816760    0.000837786499
 K    4.468051238544   -2.504368354693   -0.002321594383
