13

 N   -2.799995057617    1.938917894652    0.001086315405
 C   -1.626255474534    2.666290086162    0.000773836235
 H   -1.743972334597    3.751608545206    0.000657988676
 C   -2.845771030697    0.545706102785    0.000701260836
 O   -3.897359199253   -0.088397211056    0.001044627940
 N   -1.585330489556   -0.037763953347    0.001118164158
 H   -1.575514692433   -1.056049065213    0.001090860063
 C   -0.324076200323    0.598291533616    0.001135258994
 O    0.709616727745   -0.070972300800    0.000389593330
 C   -0.405554992083    2.058838595006    0.000635361547
 H    0.517845146219    2.635898853872    0.000294684770
 H   -3.703732233565    2.398572016012    0.000884663805
 K    4.654892833231   -2.625338827349   -0.002456374604
