13

 N   -2.821656570852    1.952942627736    0.001101941174
 C   -1.647916987769    2.680314819246    0.000789462004
 H   -1.765633847832    3.765633278290    0.000673614445
 C   -2.867432543932    0.559730835869    0.000716886605
 O   -3.919020712488   -0.074372477972    0.001060253709
 N   -1.606992002791   -0.023739220263    0.001133789927
 H   -1.597176205668   -1.042024332129    0.001106485832
 C   -0.345737713558    0.612316266700    0.001150884763
 O    0.687955214510   -0.056947567716    0.000405219099
 C   -0.427216505318    2.072863328090    0.000650987316
 H    0.496183632984    2.649923586956    0.000310310539
 H   -3.725393746800    2.412596749096    0.000900289574
 K    4.717173364793   -2.665662318234   -0.002501301345
