13

 N   -2.886641110558    1.995016826989    0.001148818480
 C   -1.712901527475    2.722389018499    0.000836339310
 H   -1.830618387538    3.807707477543    0.000720491751
 C   -2.932417083638    0.601805035122    0.000763763911
 O   -3.984005252194   -0.032298278719    0.001107131015
 N   -1.671976542497    0.018334978990    0.001180667233
 H   -1.662160745374   -0.999950132876    0.001153363138
 C   -0.410722253264    0.654390465953    0.001197762069
 O    0.622970674804   -0.014873368463    0.000452096405
 C   -0.492201045024    2.114937527343    0.000697864622
 H    0.431199093278    2.691997786209    0.000357187845
 H   -3.790378286506    2.454670948349    0.000947166880
 K    4.904014959480   -2.786632790889   -0.002636081566
