13

 N   -2.973287163499    2.051115759325    0.001211321555
 C   -1.799547580416    2.778487950835    0.000898842385
 H   -1.917264440479    3.863806409879    0.000782994826
 C   -3.019063136579    0.657903967458    0.000826266986
 O   -4.070651305135    0.023800653617    0.001169634090
 N   -1.758622595438    0.074433911326    0.001243170308
 H   -1.748806798315   -0.943851200540    0.001215866213
 C   -0.497368306205    0.710489398289    0.001260265144
 O    0.536324621863    0.041225563873    0.000514599480
 C   -0.578847097965    2.171036459679    0.000760367697
 H    0.344553040337    2.748096718545    0.000419690920
 H   -3.877024339447    2.510769880685    0.001009669955
 K    5.153137085729   -2.947926754429   -0.002815788528
