13

 N   -3.016610189969    2.079165225493    0.001242573092
 C   -1.842870606886    2.806537417003    0.000930093922
 H   -1.960587466949    3.891855876047    0.000814246363
 C   -3.062386163049    0.685953433626    0.000857518523
 O   -4.113974331605    0.051850119785    0.001200885627
 N   -1.801945621908    0.102483377494    0.001274421845
 H   -1.792129824785   -0.915801734372    0.001247117750
 C   -0.540691332675    0.738538864457    0.001291516681
 O    0.493001595393    0.069275030041    0.000545851017
 C   -0.622170124435    2.199085925847    0.000791619234
 H    0.301230013867    2.776146184713    0.000450942457
 H   -3.920347365917    2.538819346853    0.001040921492
 K    5.277698148854   -3.028573736199   -0.002905642009
