13

 N   -3.081594729675    2.121239424746    0.001289450399
 C   -1.907855146592    2.848611616256    0.000976971229
 H   -2.025572006655    3.933930075300    0.000861123670
 C   -3.127370702755    0.728027632879    0.000904395830
 O   -4.178958871311    0.093924319038    0.001247762934
 N   -1.866930161614    0.144557576747    0.001321299152
 H   -1.857114364491   -0.873727535119    0.001293995057
 C   -0.605675872381    0.780613063710    0.001338393988
 O    0.428017055687    0.111349229294    0.000592728324
 C   -0.687154664141    2.241160125100    0.000838496541
 H    0.236245474161    2.818220383966    0.000497819764
 H   -3.985331905623    2.580893546106    0.001087798799
 K    5.464539743540   -3.149544208854   -0.003040422230
