13

 N   -3.124917756146    2.149288890914    0.001320701936
 C   -1.951178173063    2.876661082424    0.001008222766
 H   -2.068895033126    3.961979541468    0.000892375207
 C   -3.170693729226    0.756077099047    0.000935647367
 O   -4.222281897782    0.121973785206    0.001279014471
 N   -1.910253188085    0.172607042915    0.001352550689
 H   -1.900437390962   -0.845678068951    0.001325246594
 C   -0.648998898852    0.808662529878    0.001369645525
 O    0.384694029216    0.139398695462    0.000623979861
 C   -0.730477690612    2.269209591268    0.000869748078
 H    0.192922447690    2.846269850134    0.000529071301
 H   -4.028654932094    2.608943012274    0.001119050336
 K    5.589100806665   -3.230191190624   -0.003130275711
