13

 N   -3.168240782616    2.177338357082    0.001351953474
 C   -1.994501199533    2.904710548592    0.001039474304
 H   -2.112218059596    3.990029007636    0.000923626745
 C   -3.214016755696    0.784126565215    0.000966898905
 O   -4.265604924252    0.150023251374    0.001310266009
 N   -1.953576214555    0.200656509083    0.001383802227
 H   -1.943760417432   -0.817628602783    0.001356498132
 C   -0.692321925322    0.836711996046    0.001400897063
 O    0.341371002746    0.167448161630    0.000655231399
 C   -0.773800717082    2.297259057436    0.000900999616
 H    0.149599421220    2.874319316302    0.000560322839
 H   -4.071977958564    2.636992478442    0.001150301874
 K    5.713661869790   -3.310838172394   -0.003220129192
