13

 N   -3.189902295852    2.191363090166    0.001367579242
 C   -2.016162712769    2.918735281676    0.001055100072
 H   -2.133879572832    4.004053740720    0.000939252513
 C   -3.235678268932    0.798151298299    0.000982524673
 O   -4.287266437488    0.164047984458    0.001325891777
 N   -1.975237727791    0.214681242167    0.001399427995
 H   -1.965421930668   -0.803603869699    0.001372123900
 C   -0.713983438558    0.850736729130    0.001416522831
 O    0.319709489510    0.181472894714    0.000670857167
 C   -0.795462230318    2.311283790520    0.000916625384
 H    0.127937907984    2.888344049386    0.000575948607
 H   -4.093639471800    2.651017211526    0.001165927642
 K    5.775942401352   -3.351161663279   -0.003265055933
