13

 N   -3.276548348793    2.247462022503    0.001430082317
 C   -2.102808765710    2.974834214013    0.001117603147
 H   -2.220525625773    4.060152673057    0.001001755588
 C   -3.322324321873    0.854250230636    0.001045027748
 O   -4.373912490429    0.220146916795    0.001388394852
 N   -2.061883780732    0.270780174504    0.001461931070
 H   -2.052067983609   -0.747504937362    0.001434626975
 C   -0.800629491499    0.906835661467    0.001479025906
 O    0.233063436569    0.237571827051    0.000733360242
 C   -0.882108283259    2.367382722857    0.000979128459
 H    0.041291855043    2.944442981723    0.000638451682
 H   -4.180285524741    2.707116143863    0.001228430717
 K    6.025064527601   -3.512455626819   -0.003444762895
