13

 N   -3.298209862028    2.261486755587    0.001445708086
 C   -2.124470278945    2.988858947097    0.001133228916
 H   -2.242187139008    4.074177406141    0.001017381357
 C   -3.343985835108    0.868274963720    0.001060653517
 O   -4.395574003664    0.234171649879    0.001404020621
 N   -2.083545293967    0.284804907588    0.001477556839
 H   -2.073729496844   -0.733480204278    0.001450252744
 C   -0.822291004734    0.920860394551    0.001494651675
 O    0.211401923334    0.251596560135    0.000748986011
 C   -0.903769796494    2.381407455941    0.000994754228
 H    0.019630341808    2.958467714807    0.000654077451
 H   -4.201947037976    2.721140876947    0.001244056486
 K    6.087345059163   -3.552779117704   -0.003489689635
