13

 N   -3.319871375263    2.275511488671    0.001461333855
 C   -2.146131792180    3.002883680181    0.001148854685
 H   -2.263848652243    4.088202139225    0.001033007126
 C   -3.365647348343    0.882299696804    0.001076279286
 O   -4.417235516899    0.248196382963    0.001419646390
 N   -2.105206807202    0.298829640672    0.001493182608
 H   -2.095391010079   -0.719455471194    0.001465878513
 C   -0.843952517969    0.934885127635    0.001510277444
 O    0.189740410099    0.265621293219    0.000764611780
 C   -0.925431309729    2.395432189025    0.001010379997
 H   -0.002031171427    2.972492447891    0.000669703220
 H   -4.223608551211    2.735165610031    0.001259682255
 K    6.149625590726   -3.593102608589   -0.003534616376
