13

 N   -3.341532888498    2.289536221755    0.001476959624
 C   -2.167793305415    3.016908413265    0.001164480454
 H   -2.285510165478    4.102226872309    0.001048632895
 C   -3.387308861578    0.896324429888    0.001091905055
 O   -4.438897030134    0.262221116047    0.001435272159
 N   -2.126868320437    0.312854373756    0.001508808377
 H   -2.117052523314   -0.705430738110    0.001481504282
 C   -0.865614031204    0.948909860719    0.001525903213
 O    0.168078896864    0.279646026303    0.000780237549
 C   -0.947092822964    2.409456922109    0.001026005766
 H   -0.023692684662    2.986517180975    0.000685328989
 H   -4.245270064446    2.749190343115    0.001275308024
 K    6.211906122288   -3.633426099474   -0.003579543116
