13

 N   -3.363194401734    2.303560954839    0.001492585392
 C   -2.189454818651    3.030933146349    0.001180106222
 H   -2.307171678714    4.116251605393    0.001064258663
 C   -3.408970374814    0.910349162972    0.001107530823
 O   -4.460558543370    0.276245849131    0.001450897927
 N   -2.148529833673    0.326879106840    0.001524434145
 H   -2.138714036550   -0.691406005026    0.001497130050
 C   -0.887275544440    0.962934593803    0.001541528981
 O    0.146417383628    0.293670759387    0.000795863317
 C   -0.968754336200    2.423481655193    0.001041631534
 H   -0.045354197898    3.000541914059    0.000700954757
 H   -4.266931577682    2.763215076199    0.001290933792
 K    6.274186653850   -3.673749590359   -0.003624469857
