13

 N   -3.406517428204    2.331610421007    0.001523836930
 C   -2.232777845121    3.058982612517    0.001211357760
 H   -2.350494705184    4.144301071561    0.001095510201
 C   -3.452293401284    0.938398629140    0.001138782361
 O   -4.503881569840    0.304295315299    0.001482149465
 N   -2.191852860143    0.354928573008    0.001555685683
 H   -2.182037063020   -0.663356538858    0.001528381588
 C   -0.930598570910    0.990984059971    0.001572780519
 O    0.103094357158    0.321720225555    0.000827114855
 C   -1.012077362670    2.451531121361    0.001072883072
 H   -0.088677224368    3.028591380227    0.000732206295
 H   -4.310254604152    2.791264542367    0.001322185330
 K    6.398747716975   -3.754396572129   -0.003714323338
