13

 N   -3.428178941439    2.345635154091    0.001539462698
 C   -2.254439358356    3.073007345601    0.001226983528
 H   -2.372156218419    4.158325804645    0.001111135969
 C   -3.473954914519    0.952423362224    0.001154408129
 O   -4.525543083075    0.318320048383    0.001497775233
 N   -2.213514373378    0.368953306092    0.001571311451
 H   -2.203698576255   -0.649331805774    0.001544007356
 C   -0.952260084145    1.005008793055    0.001588406287
 O    0.081432843923    0.335744958639    0.000842740623
 C   -1.033738875905    2.465555854445    0.001088508840
 H   -0.110338737603    3.042616113311    0.000747832063
 H   -4.331916117387    2.805289275451    0.001337811098
 K    6.461028248537   -3.794720063014   -0.003759250078
