13

 N   -3.471501967910    2.373684620260    0.001570714236
 C   -2.297762384827    3.101056811770    0.001258235066
 H   -2.415479244890    4.186375270814    0.001142387507
 C   -3.517277940990    0.980472828393    0.001185659667
 O   -4.568866109546    0.346369514552    0.001529026771
 N   -2.256837399849    0.397002772261    0.001602562989
 H   -2.247021602726   -0.621282339605    0.001575258894
 C   -0.995583110616    1.033058259224    0.001619657825
 O    0.038109817452    0.363794424808    0.000873992161
 C   -1.077061902376    2.493605320614    0.001119760378
 H   -0.153661764074    3.070665579480    0.000779083601
 H   -4.375239143858    2.833338741620    0.001369062636
 K    6.585589311662   -3.875367044784   -0.003849103559
