13

 N   -3.536486507616    2.415758819512    0.001617591542
 C   -2.362746924533    3.143131011022    0.001305112372
 H   -2.480463784596    4.228449470066    0.001189264813
 C   -3.582262480696    1.022547027645    0.001232536973
 O   -4.633850649252    0.388443713804    0.001575904077
 N   -2.321821939555    0.439076971513    0.001649440295
 H   -2.312006142432   -0.579208140353    0.001622136200
 C   -1.060567650322    1.075132458476    0.001666535131
 O   -0.026874722254    0.405868624060    0.000920869467
 C   -1.142046442082    2.535679519866    0.001166637684
 H   -0.218646303780    3.112739778732    0.000825960907
 H   -4.440223683564    2.875412940872    0.001415939942
 K    6.772430906349   -3.996337517439   -0.003983883781
