13

 N   -3.688117100263    2.513931951101    0.001726971923
 C   -2.514377517180    3.241304142611    0.001414492753
 H   -2.632094377243    4.326622601655    0.001298645194
 C   -3.733893073343    1.120720159234    0.001341917354
 O   -4.785481241899    0.486616845393    0.001685284458
 N   -2.473452532202    0.537250103102    0.001758820676
 H   -2.463636735079   -0.481035008764    0.001731516581
 C   -1.212198242969    1.173305590065    0.001775915512
 O   -0.178505314901    0.504041755649    0.001030249848
 C   -1.293677034729    2.633852651455    0.001276018065
 H   -0.370276896427    3.210912910321    0.000935341288
 H   -4.591854276211    2.973586072461    0.001525320323
 K    7.208394627285   -4.278601953634   -0.004298370964
