13

 N   -3.818086179674    2.598080349605    0.001820726536
 C   -2.644346596591    3.325452541115    0.001508247366
 H   -2.762063456654    4.410771000159    0.001392399807
 C   -3.863862152754    1.204868557738    0.001435671967
 O   -4.915450321310    0.570765243897    0.001779039071
 N   -2.603421611613    0.621398501606    0.001852575289
 H   -2.593605814490   -0.396886610260    0.001825271194
 C   -1.342167322380    1.257453988569    0.001869670125
 O   -0.308474394312    0.588190154153    0.001124004461
 C   -1.423646114140    2.718001049959    0.001369772678
 H   -0.500245975838    3.295061308825    0.001029095901
 H   -4.721823355622    3.057734470965    0.001619074936
 K    7.582077816659   -4.520542898944   -0.004567931407
