13

 N   -3.839747692909    2.612105082689    0.001836352305
 C   -2.666008109826    3.339477274199    0.001523873135
 H   -2.783724969889    4.424795733243    0.001408025576
 C   -3.885523665989    1.218893290822    0.001451297736
 O   -4.937111834545    0.584789976981    0.001794664840
 N   -2.625083124848    0.635423234690    0.001868201058
 H   -2.615267327725   -0.382861877176    0.001840896963
 C   -1.363828835615    1.271478721653    0.001885295894
 O   -0.330135907547    0.602214887237    0.001139630230
 C   -1.445307627375    2.732025783043    0.001385398447
 H   -0.521907489073    3.309086041909    0.001044721670
 H   -4.743484868857    3.071759204049    0.001634700705
 K    7.644358348221   -4.560866389829   -0.004612858147
