12

 C   -0.989519306154    1.583762391536    0.000000000000
 C    0.122822693846    0.564284391536    0.000000000000
 O   -0.381508306154   -0.702168608464    0.000000000000
 C    0.632957693846   -1.735907608464    0.000000000000
 O    1.320462693846    0.808777391536    0.000000000000
 H   -0.556949306154    2.590772391536    0.000000000000
 H   -1.621856306154    1.441190391536    0.888615000000
 H   -1.621856306154    1.441190391536   -0.888615000000
 H    0.078860693846   -2.681031608464    0.000000000000
 H    1.262752693846   -1.649608608464    0.896190000000
 H    1.262752693846   -1.649608608464   -0.896190000000
LI   -1.568980324816   -0.875114278820    0.000000000000
