12

 C   -0.963822138614    1.587504975611    0.000000000000
 C    0.148519861386    0.568026975611    0.000000000000
 O   -0.355811138614   -0.698426024389    0.000000000000
 C    0.658654861386   -1.732165024389    0.000000000000
 O    1.346159861386    0.812519975611    0.000000000000
 H   -0.531252138614    2.594514975611    0.000000000000
 H   -1.596159138614    1.444932975611    0.888615000000
 H   -1.596159138614    1.444932975611   -0.888615000000
 H    0.104557861386   -2.677289024389    0.000000000000
 H    1.288449861386   -1.645866024389    0.896190000000
 H    1.288449861386   -1.645866024389   -0.896190000000
LI   -1.840151161942   -0.914608112334    0.000000000000
