12

 C   -0.955256416101    1.588752503636    0.000000000000
 C    0.157085583899    0.569274503636    0.000000000000
 O   -0.347245416101   -0.697178496364    0.000000000000
 C    0.667220583899   -1.730917496364    0.000000000000
 O    1.354725583899    0.813767503636    0.000000000000
 H   -0.522686416101    2.595762503636    0.000000000000
 H   -1.587593416101    1.446180503636    0.888615000000
 H   -1.587593416101    1.446180503636   -0.888615000000
 H    0.113123583899   -2.676041496364    0.000000000000
 H    1.297015583899   -1.644618496364    0.896190000000
 H    1.297015583899   -1.644618496364   -0.896190000000
LI   -1.930541440984   -0.927772723505    0.000000000000
