12

 C   -0.235735724988    1.693544857732    0.000000000000
 C    0.876606275012    0.674066857732    0.000000000000
 O    0.372275275012   -0.592386142268    0.000000000000
 C    1.386741275012   -1.626125142268    0.000000000000
 O    2.074246275012    0.918559857732    0.000000000000
 H    0.196834275012    2.700554857732    0.000000000000
 H   -0.868072724988    1.550972857732    0.888615000000
 H   -0.868072724988    1.550972857732   -0.888615000000
 H    0.832644275012   -2.571249142268    0.000000000000
 H    2.016536275012   -1.539826142268    0.896190000000
 H    2.016536275012   -1.539826142268   -0.896190000000
LI   -9.523324880505   -2.033600061898    0.000000000000
