12

 C   -0.912427803535    1.594990143760    0.000000000000
 C    0.199914196465    0.575512143760    0.000000000000
 O   -0.304416803535   -0.690940856240    0.000000000000
 C    0.710049196465   -1.724679856240    0.000000000000
 O    1.397554196465    0.820005143760    0.000000000000
 H   -0.479857803535    2.602000143760    0.000000000000
 H   -1.544764803535    1.452418143760    0.888615000000
 H   -1.544764803535    1.452418143760   -0.888615000000
 H    0.155952196465   -2.669803856240    0.000000000000
 H    1.339844196465   -1.638380856240    0.896190000000
 H    1.339844196465   -1.638380856240   -0.896190000000
LI   -2.382492836193   -0.993595779362    0.000000000000
