12

 C   -0.895296358508    1.597485199810    0.000000000000
 C    0.217045641492    0.578007199810    0.000000000000
 O   -0.287285358508   -0.688445800190    0.000000000000
 C    0.727180641492   -1.722184800190    0.000000000000
 O    1.414685641492    0.822500199810    0.000000000000
 H   -0.462726358508    2.604495199810    0.000000000000
 H   -1.527633358508    1.454913199810    0.888615000000
 H   -1.527633358508    1.454913199810   -0.888615000000
 H    0.173083641492   -2.667308800190    0.000000000000
 H    1.356975641492   -1.635885800190    0.896190000000
 H    1.356975641492   -1.635885800190   -0.896190000000
LI   -2.563273394277   -1.019925001705    0.000000000000
