12

 C   -0.886730635995    1.598732727835    0.000000000000
 C    0.225611364005    0.579254727835    0.000000000000
 O   -0.278719635995   -0.687198272165    0.000000000000
 C    0.735746364005   -1.720937272165    0.000000000000
 O    1.423251364005    0.823747727835    0.000000000000
 H   -0.454160635995    2.605742727835    0.000000000000
 H   -1.519067635995    1.456160727835    0.888615000000
 H   -1.519067635995    1.456160727835   -0.888615000000
 H    0.181649364005   -2.666061272165    0.000000000000
 H    1.365541364005   -1.634638272165    0.896190000000
 H    1.365541364005   -1.634638272165   -0.896190000000
LI   -2.653663673319   -1.033089612876    0.000000000000
