12

 C   -0.852467745942    1.603722839935    0.000000000000
 C    0.259874254058    0.584244839935    0.000000000000
 O   -0.244456745942   -0.682208160065    0.000000000000
 C    0.770009254058   -1.715947160065    0.000000000000
 O    1.457514254058    0.828737839935    0.000000000000
 H   -0.419897745942    2.610732839935    0.000000000000
 H   -1.484804745942    1.461150839935    0.888615000000
 H   -1.484804745942    1.461150839935   -0.888615000000
 H    0.215912254058   -2.661071160065    0.000000000000
 H    1.399804254058   -1.629648160065    0.896190000000
 H    1.399804254058   -1.629648160065   -0.896190000000
LI   -3.015224789487   -1.085748057561    0.000000000000
