12

 C   -0.792507688349    1.612455536110    0.000000000000
 C    0.319834311651    0.592977536110    0.000000000000
 O   -0.184496688349   -0.673475463890    0.000000000000
 C    0.829969311651   -1.707214463890    0.000000000000
 O    1.517474311651    0.837470536110    0.000000000000
 H   -0.359937688349    2.619465536110    0.000000000000
 H   -1.424844688349    1.469883536110    0.888615000000
 H   -1.424844688349    1.469883536110   -0.888615000000
 H    0.275872311651   -2.652338463890    0.000000000000
 H    1.459764311651   -1.620915463890    0.896190000000
 H    1.459764311651   -1.620915463890   -0.896190000000
LI   -3.647956742780   -1.177900335761    0.000000000000
