12

 C   -0.758244798296    1.617445648210    0.000000000000
 C    0.354097201704    0.597967648210    0.000000000000
 O   -0.150233798296   -0.668485351790    0.000000000000
 C    0.864232201704   -1.702224351790    0.000000000000
 O    1.551737201704    0.842460648210    0.000000000000
 H   -0.325674798296    2.624455648210    0.000000000000
 H   -1.390581798296    1.474873648210    0.888615000000
 H   -1.390581798296    1.474873648210   -0.888615000000
 H    0.310135201704   -2.647348351790    0.000000000000
 H    1.494027201704   -1.615925351790    0.896190000000
 H    1.494027201704   -1.615925351790   -0.896190000000
LI   -4.009517858948   -1.230558780446    0.000000000000
