12

 C   -0.595496070545    1.641148680684    0.000000000000
 C    0.516845929455    0.621670680684    0.000000000000
 O    0.012514929455   -0.644782319316    0.000000000000
 C    1.026980929455   -1.678521319316    0.000000000000
 O    1.714485929455    0.866163680684    0.000000000000
 H   -0.162926070545    2.648158680684    0.000000000000
 H   -1.227833070545    1.498576680684    0.888615000000
 H   -1.227833070545    1.498576680684   -0.888615000000
 H    0.472883929455   -2.623645319316    0.000000000000
 H    1.656775929455   -1.592222319316    0.896190000000
 H    1.656775929455   -1.592222319316   -0.896190000000
LI   -5.726933160744   -1.480686392701    0.000000000000
