12

 C   -0.586930348031    1.642396208709    0.000000000000
 C    0.525411651969    0.622918208709    0.000000000000
 O    0.021080651969   -0.643534791291    0.000000000000
 C    1.035546651969   -1.677273791291    0.000000000000
 O    1.723051651969    0.867411208709    0.000000000000
 H   -0.154360348031    2.649406208709    0.000000000000
 H   -1.219267348031    1.499824208709    0.888615000000
 H   -1.219267348031    1.499824208709   -0.888615000000
 H    0.481449651969   -2.622397791291    0.000000000000
 H    1.665341651969   -1.590974791291    0.896190000000
 H    1.665341651969   -1.590974791291   -0.896190000000
LI   -5.817323439786   -1.493851003873    0.000000000000
