12

 C   -0.578364625518    1.643643736734    0.000000000000
 C    0.533977374482    0.624165736734    0.000000000000
 O    0.029646374482   -0.642287263266    0.000000000000
 C    1.044112374482   -1.676026263266    0.000000000000
 O    1.731617374482    0.868658736734    0.000000000000
 H   -0.145794625518    2.650653736734    0.000000000000
 H   -1.210701625518    1.501071736734    0.888615000000
 H   -1.210701625518    1.501071736734   -0.888615000000
 H    0.490015374482   -2.621150263266    0.000000000000
 H    1.673907374482   -1.589727263266    0.896190000000
 H    1.673907374482   -1.589727263266   -0.896190000000
LI   -5.907713718828   -1.507015615044    0.000000000000
