12

 C   -0.509838845412    1.653623960933    0.000000000000
 C    0.602503154588    0.634145960933    0.000000000000
 O    0.098172154588   -0.632307039067    0.000000000000
 C    1.112638154588   -1.666046039067    0.000000000000
 O    1.800143154588    0.878638960933    0.000000000000
 H   -0.077268845412    2.660633960933    0.000000000000
 H   -1.142175845412    1.511051960933    0.888615000000
 H   -1.142175845412    1.511051960933   -0.888615000000
 H    0.558541154588   -2.611170039067    0.000000000000
 H    1.742433154588   -1.579747039067    0.896190000000
 H    1.742433154588   -1.579747039067   -0.896190000000
LI   -6.630835951164   -1.612332504415    0.000000000000
