12

 C   -0.501273122899    1.654871488958    0.000000000000
 C    0.611068877101    0.635393488958    0.000000000000
 O    0.106737877101   -0.631059511042    0.000000000000
 C    1.121203877101   -1.664798511042    0.000000000000
 O    1.808708877101    0.879886488958    0.000000000000
 H   -0.068703122899    2.661881488958    0.000000000000
 H   -1.133610122899    1.512299488958    0.888615000000
 H   -1.133610122899    1.512299488958   -0.888615000000
 H    0.567106877101   -2.609922511042    0.000000000000
 H    1.750998877101   -1.578499511042    0.896190000000
 H    1.750998877101   -1.578499511042   -0.896190000000
LI   -6.721226230205   -1.625497115586    0.000000000000
