12

 C   -0.492707400386    1.656119016983    0.000000000000
 C    0.619634599614    0.636641016983    0.000000000000
 O    0.115303599614   -0.629811983017    0.000000000000
 C    1.129769599614   -1.663550983017    0.000000000000
 O    1.817274599614    0.881134016983    0.000000000000
 H   -0.060137400386    2.663129016983    0.000000000000
 H   -1.125044400386    1.513547016983    0.888615000000
 H   -1.125044400386    1.513547016983   -0.888615000000
 H    0.575672599614   -2.608674983017    0.000000000000
 H    1.759564599614   -1.577251983017    0.896190000000
 H    1.759564599614   -1.577251983017   -0.896190000000
LI   -6.811616509247   -1.638661726757    0.000000000000
