12

 C   -0.467010232846    1.659861601058    0.000000000000
 C    0.645331767154    0.640383601058    0.000000000000
 O    0.141000767154   -0.626069398942    0.000000000000
 C    1.155466767154   -1.659808398942    0.000000000000
 O    1.842971767154    0.884876601058    0.000000000000
 H   -0.034440232846    2.666871601058    0.000000000000
 H   -1.099347232846    1.517289601058    0.888615000000
 H   -1.099347232846    1.517289601058   -0.888615000000
 H    0.601369767154   -2.604932398942    0.000000000000
 H    1.785261767154   -1.573509398942    0.896190000000
 H    1.785261767154   -1.573509398942   -0.896190000000
LI   -7.082787346373   -1.678155560271    0.000000000000
