12

 C   -0.398484452740    1.669841825258    0.000000000000
 C    0.713857547260    0.650363825258    0.000000000000
 O    0.209526547260   -0.616089174742    0.000000000000
 C    1.223992547260   -1.649828174742    0.000000000000
 O    1.911497547260    0.894856825258    0.000000000000
 H    0.034085547260    2.676851825258    0.000000000000
 H   -1.030821452740    1.527269825258    0.888615000000
 H   -1.030821452740    1.527269825258   -0.888615000000
 H    0.669895547260   -2.594952174742    0.000000000000
 H    1.853787547260   -1.563529174742    0.896190000000
 H    1.853787547260   -1.563529174742   -0.896190000000
LI   -7.805909578709   -1.783472449642    0.000000000000
