12

 C   -0.389918730227    1.671089353283    0.000000000000
 C    0.722423269773    0.651611353283    0.000000000000
 O    0.218092269773   -0.614841646717    0.000000000000
 C    1.232558269773   -1.648580646717    0.000000000000
 O    1.920063269773    0.896104353283    0.000000000000
 H    0.042651269773    2.678099353283    0.000000000000
 H   -1.022255730227    1.528517353283    0.888615000000
 H   -1.022255730227    1.528517353283   -0.888615000000
 H    0.678461269773   -2.593704646717    0.000000000000
 H    1.862353269773   -1.562281646717    0.896190000000
 H    1.862353269773   -1.562281646717   -0.896190000000
LI   -7.896299857750   -1.796637060813    0.000000000000
