12

 C   -0.372787285200    1.673584409333    0.000000000000
 C    0.739554714800    0.654106409333    0.000000000000
 O    0.235223714800   -0.612346590667    0.000000000000
 C    1.249689714800   -1.646085590667    0.000000000000
 O    1.937194714800    0.898599409333    0.000000000000
 H    0.059782714800    2.680594409333    0.000000000000
 H   -1.005124285200    1.531012409333    0.888615000000
 H   -1.005124285200    1.531012409333   -0.888615000000
 H    0.695592714800   -2.591209590667    0.000000000000
 H    1.879484714800   -1.559786590667    0.896190000000
 H    1.879484714800   -1.559786590667   -0.896190000000
LI   -8.077080415834   -1.822966283156    0.000000000000
