12

 C   -0.364221562687    1.674831937358    0.000000000000
 C    0.748120437313    0.655353937358    0.000000000000
 O    0.243789437313   -0.611099062642    0.000000000000
 C    1.258255437313   -1.644838062642    0.000000000000
 O    1.945760437313    0.899846937358    0.000000000000
 H    0.068348437313    2.681841937358    0.000000000000
 H   -0.996558562687    1.532259937358    0.888615000000
 H   -0.996558562687    1.532259937358   -0.888615000000
 H    0.704158437313   -2.589962062642    0.000000000000
 H    1.888050437313   -1.558539062642    0.896190000000
 H    1.888050437313   -1.558539062642   -0.896190000000
LI   -8.167470694876   -1.836130894328    0.000000000000
