12

 C   -0.338524395147    1.678574521432    0.000000000000
 C    0.773817604853    0.659096521432    0.000000000000
 O    0.269486604853   -0.607356478568    0.000000000000
 C    1.283952604853   -1.641095478568    0.000000000000
 O    1.971457604853    0.903589521432    0.000000000000
 H    0.094045604853    2.685584521432    0.000000000000
 H   -0.970861395147    1.536002521432    0.888615000000
 H   -0.970861395147    1.536002521432   -0.888615000000
 H    0.729855604853   -2.586219478568    0.000000000000
 H    1.913747604853   -1.554796478568    0.896190000000
 H    1.913747604853   -1.554796478568   -0.896190000000
LI   -8.438641532002   -1.875624727842    0.000000000000
