12

 C   -0.329958672634    1.679822049457    0.000000000000
 C    0.782383327366    0.660344049457    0.000000000000
 O    0.278052327366   -0.606108950543    0.000000000000
 C    1.292518327366   -1.639847950543    0.000000000000
 O    1.980023327366    0.904837049457    0.000000000000
 H    0.102611327366    2.686832049457    0.000000000000
 H   -0.962295672634    1.537250049457    0.888615000000
 H   -0.962295672634    1.537250049457   -0.888615000000
 H    0.738421327366   -2.584971950543    0.000000000000
 H    1.922313327366   -1.553548950543    0.896190000000
 H    1.922313327366   -1.553548950543   -0.896190000000
LI   -8.529031811044   -1.888789339013    0.000000000000
