12

 C   -0.287130060068    1.686059689582    0.000000000000
 C    0.825211939932    0.666581689582    0.000000000000
 O    0.320880939932   -0.599871310418    0.000000000000
 C    1.335346939932   -1.633610310418    0.000000000000
 O    2.022851939932    0.911074689582    0.000000000000
 H    0.145439939932    2.693069689582    0.000000000000
 H   -0.919467060068    1.543487689582    0.888615000000
 H   -0.919467060068    1.543487689582   -0.888615000000
 H    0.781249939932   -2.578734310418    0.000000000000
 H    1.965141939932   -1.547311310418    0.896190000000
 H    1.965141939932   -1.547311310418   -0.896190000000
LI   -8.980983206254   -1.954612394870    0.000000000000
