25

 C   -5.572822206710   -0.215676048182    0.000000000000
 H   -6.665612206710   -0.257956048182    0.000000000000
 C   -4.898072206710    1.021273951818    0.000000000000
 H   -5.472092206710    1.954803951818    0.000000000000
 C   -4.804342206710   -1.396716048182    0.000000000000
 H   -5.304302206710   -2.371916048182    0.000000000000
 C   -3.494722206710    1.078553951818    0.000000000000
 H   -2.978792206710    2.044253951818    0.000000000000
 C   -3.400792206710   -1.345046048182    0.000000000000
 H   -2.811402206710   -2.267746048182    0.000000000000
 C   -2.688632206710   -0.103786048182    0.000000000000
 O   -1.383132206710   -0.053236048182    0.000000000000
LI    0.356947793290    0.013743951818    0.000000000000
 O    1.356207779903    0.052207949969    0.000000000000
 C    2.661709902197    0.102747034695    0.000000000000
 C    3.467800234249   -1.079590538493    0.000000000000
 H    2.951865775233   -2.045289170780    0.000000000000
 C    4.871151975436   -1.022316452659    0.000000000000
 H    5.445171069811   -1.955845761997    0.000000000000
 C    5.545901592458    0.214635573382    0.000000000000
 H    6.638694092396    0.256913039953    0.000000000000
 C    4.777426828775    1.395681059417    0.000000000000
 H    5.277390781452    2.370867718690    0.000000000000
 C    3.373887570868    1.344011807315    0.000000000000
 H    2.784500993263    2.266705569643    0.000000000000
