25

 C   -5.620969724570   -0.217529365700    0.000000000000
 H   -6.713759724570   -0.259809365700    0.000000000000
 C   -4.946219724570    1.019420634300    0.000000000000
 H   -5.520239724570    1.952950634300    0.000000000000
 C   -4.852489724570   -1.398569365700    0.000000000000
 H   -5.352449724570   -2.373769365700    0.000000000000
 C   -3.542869724570    1.076700634300    0.000000000000
 H   -3.026939724570    2.042400634300    0.000000000000
 C   -3.448939724570   -1.346899365700    0.000000000000
 H   -2.859549724570   -2.269599365700    0.000000000000
 C   -2.736779724570   -0.105639365700    0.000000000000
 O   -1.431279724570   -0.055089365700    0.000000000000
LI    0.308800275430    0.011890634300    0.000000000000
 O    1.407986260705    0.054201032266    0.000000000000
 C    2.713488382999    0.104740116992    0.000000000000
 C    3.519578715050   -1.077597456196    0.000000000000
 H    3.003644256035   -2.043296088483    0.000000000000
 C    4.922930456237   -1.020323370362    0.000000000000
 H    5.496949550612   -1.953852679700    0.000000000000
 C    5.597680073259    0.216628655680    0.000000000000
 H    6.690472573197    0.258906122250    0.000000000000
 C    4.829205309577    1.397674141715    0.000000000000
 H    5.329169262254    2.372860800987    0.000000000000
 C    3.425666051669    1.346004889612    0.000000000000
 H    2.836279474065    2.268698651940    0.000000000000
