25

 C   -5.717264760290   -0.221236000736    0.000000000000
 H   -6.810054760290   -0.263516000736    0.000000000000
 C   -5.042514760290    1.015713999264    0.000000000000
 H   -5.616534760290    1.949243999264    0.000000000000
 C   -4.948784760290   -1.402276000736    0.000000000000
 H   -5.448744760290   -2.377476000736    0.000000000000
 C   -3.639164760290    1.072993999264    0.000000000000
 H   -3.123234760290    2.038693999264    0.000000000000
 C   -3.545234760290   -1.350606000736    0.000000000000
 H   -2.955844760290   -2.273306000736    0.000000000000
 C   -2.833074760290   -0.109346000736    0.000000000000
 O   -1.527574760290   -0.058796000736    0.000000000000
LI    0.212505239710    0.008183999264    0.000000000000
 O    1.511543222308    0.058187196861    0.000000000000
 C    2.817045344602    0.108726281587    0.000000000000
 C    3.623135676654   -1.073611291601    0.000000000000
 H    3.107201217638   -2.039309923888    0.000000000000
 C    5.026487417840   -1.016337205767    0.000000000000
 H    5.600506512215   -1.949866515105    0.000000000000
 C    5.701237034862    0.220614820275    0.000000000000
 H    6.794029534800    0.262892286845    0.000000000000
 C    4.932762271180    1.401660306309    0.000000000000
 H    5.432726223857    2.376846965582    0.000000000000
 C    3.529223013272    1.349991054207    0.000000000000
 H    2.939836435668    2.272684816535    0.000000000000
