25

 C   -5.765412278149   -0.223089318253    0.000000000000
 H   -6.858202278149   -0.265369318253    0.000000000000
 C   -5.090662278149    1.013860681747    0.000000000000
 H   -5.664682278149    1.947390681747    0.000000000000
 C   -4.996932278149   -1.404129318253    0.000000000000
 H   -5.496892278149   -2.379329318253    0.000000000000
 C   -3.687312278149    1.071140681747    0.000000000000
 H   -3.171382278149    2.036840681747    0.000000000000
 C   -3.593382278149   -1.352459318253    0.000000000000
 H   -3.003992278149   -2.275159318253    0.000000000000
 C   -2.881222278149   -0.111199318253    0.000000000000
 O   -1.575722278149   -0.060649318253    0.000000000000
LI    0.164357721851    0.006330681747    0.000000000000
 O    1.563321703109    0.060180279159    0.000000000000
 C    2.868823825404    0.110719363885    0.000000000000
 C    3.674914157455   -1.071618209304    0.000000000000
 H    3.158979698440   -2.037316841590    0.000000000000
 C    5.078265898642   -1.014344123470    0.000000000000
 H    5.652284993017   -1.947873432807    0.000000000000
 C    5.753015515664    0.222607902572    0.000000000000
 H    6.845808015602    0.264885369142    0.000000000000
 C    4.984540751981    1.403653388607    0.000000000000
 H    5.484504704658    2.378840047880    0.000000000000
 C    3.581001494074    1.351984136504    0.000000000000
 H    2.991614916469    2.274677898832    0.000000000000
