25

 C   -5.958002349588   -0.230502588324    0.000000000000
 H   -7.050792349588   -0.272782588324    0.000000000000
 C   -5.283252349588    1.006447411676    0.000000000000
 H   -5.857272349588    1.939977411676    0.000000000000
 C   -5.189522349588   -1.411542588324    0.000000000000
 H   -5.689482349588   -2.386742588324    0.000000000000
 C   -3.879902349588    1.063727411676    0.000000000000
 H   -3.363972349588    2.029427411676    0.000000000000
 C   -3.785972349588   -1.359872588324    0.000000000000
 H   -3.196582349588   -2.282572588324    0.000000000000
 C   -3.073812349588   -0.118612588324    0.000000000000
 O   -1.768312349588   -0.068062588324    0.000000000000
LI   -0.028232349588   -0.001082588324    0.000000000000
 O    1.770435626315    0.068152608348    0.000000000000
 C    3.075937748610    0.118691693074    0.000000000000
 C    3.882028080661   -1.063645880114    0.000000000000
 H    3.366093621646   -2.029344512401    0.000000000000
 C    5.285379821848   -1.006371794280    0.000000000000
 H    5.859398916223   -1.939901103618    0.000000000000
 C    5.960129438870    0.230580231762    0.000000000000
 H    7.052921938808    0.272857698332    0.000000000000
 C    5.191654675188    1.411625717796    0.000000000000
 H    5.691618627865    2.386812377069    0.000000000000
 C    3.788115417280    1.359956465694    0.000000000000
 H    3.198728839676    2.282650228022    0.000000000000
