25

 C   -6.006149867448   -0.232355905842    0.000000000000
 H   -7.098939867448   -0.274635905842    0.000000000000
 C   -5.331399867448    1.004594094158    0.000000000000
 H   -5.905419867448    1.938124094158    0.000000000000
 C   -5.237669867448   -1.413395905842    0.000000000000
 H   -5.737629867448   -2.388595905842    0.000000000000
 C   -3.928049867448    1.061874094158    0.000000000000
 H   -3.412119867448    2.027574094158    0.000000000000
 C   -3.834119867448   -1.361725905842    0.000000000000
 H   -3.244729867448   -2.284425905842    0.000000000000
 C   -3.121959867448   -0.120465905842    0.000000000000
 O   -1.816459867448   -0.069915905842    0.000000000000
LI   -0.076379867448   -0.002935905842    0.000000000000
 O    1.822214107117    0.070145690646    0.000000000000
 C    3.127716229411    0.120684775372    0.000000000000
 C    3.933806561463   -1.061652797817    0.000000000000
 H    3.417872102447   -2.027351430103    0.000000000000
 C    5.337158302650   -1.004378711982    0.000000000000
 H    5.911177397025   -1.937908021320    0.000000000000
 C    6.011907919672    0.232573314059    0.000000000000
 H    7.104700419610    0.274850780629    0.000000000000
 C    5.243433155989    1.413618800094    0.000000000000
 H    5.743397108666    2.388805459367    0.000000000000
 C    3.839893898082    1.361949547991    0.000000000000
 H    3.250507320477    2.284643310320    0.000000000000
