25

 C   -9.906098814090   -0.382474624778    0.000000000000
 H  -10.998888814090   -0.424754624778    0.000000000000
 C   -9.231348814090    0.854475375222    0.000000000000
 H   -9.805368814090    1.788005375222    0.000000000000
 C   -9.137618814090   -1.563514624778    0.000000000000
 H   -9.637578814090   -2.538714624778    0.000000000000
 C   -7.827998814090    0.911755375222    0.000000000000
 H   -7.312068814090    1.877455375222    0.000000000000
 C   -7.734068814090   -1.511844624778    0.000000000000
 H   -7.144678814090   -2.434544624778    0.000000000000
 C   -7.021908814090   -0.270584624778    0.000000000000
 O   -5.716408814090   -0.220034624778    0.000000000000
LI   -3.976328814090   -0.153054624778    0.000000000000
 O    6.016271052042    0.231585356736    0.000000000000
 C    7.321773174337    0.282124441462    0.000000000000
 C    8.127863506388   -0.900213131726    0.000000000000
 H    7.611929047373   -1.865911764013    0.000000000000
 C    9.531215247575   -0.842939045892    0.000000000000
 H   10.105234341950   -1.776468355230    0.000000000000
 C   10.205964864597    0.394012980150    0.000000000000
 H   11.298757364535    0.436290446720    0.000000000000
 C    9.437490100915    1.575058466185    0.000000000000
 H    9.937454053592    2.550245125457    0.000000000000
 C    8.033950843007    1.523389214082    0.000000000000
 H    7.444564265403    2.446082976410    0.000000000000
