25

 C   -6.150592421027   -0.237915858395    0.000000000000
 H   -7.243382421027   -0.280195858395    0.000000000000
 C   -5.475842421027    0.999034141605    0.000000000000
 H   -6.049862421027    1.932564141605    0.000000000000
 C   -5.382112421027   -1.418955858395    0.000000000000
 H   -5.882072421027   -2.394155858395    0.000000000000
 C   -4.072492421027    1.056314141605    0.000000000000
 H   -3.556562421027    2.022014141605    0.000000000000
 C   -3.978562421027   -1.367285858395    0.000000000000
 H   -3.389172421027   -2.289985858395    0.000000000000
 C   -3.266402421027   -0.126025858395    0.000000000000
 O   -1.960902421027   -0.075475858395    0.000000000000
LI   -0.220822421027   -0.008495858395    0.000000000000
 O    1.977549549522    0.076124937538    0.000000000000
 C    3.283051671816    0.126664022264    0.000000000000
 C    4.089142003867   -1.055673550924    0.000000000000
 H    3.573207544852   -2.021372183211    0.000000000000
 C    5.492493745054   -0.998399465090    0.000000000000
 H    6.066512839429   -1.931928774428    0.000000000000
 C    6.167243362076    0.238552560951    0.000000000000
 H    7.260035862014    0.280830027522    0.000000000000
 C    5.398768598394    1.419598046986    0.000000000000
 H    5.898732551071    2.394784706259    0.000000000000
 C    3.995229340486    1.367928794884    0.000000000000
 H    3.405842762882    2.290622557212    0.000000000000
