25

 C   -6.198739938887   -0.239769175913    0.000000000000
 H   -7.291529938887   -0.282049175913    0.000000000000
 C   -5.523989938887    0.997180824087    0.000000000000
 H   -6.098009938887    1.930710824087    0.000000000000
 C   -5.430259938887   -1.420809175913    0.000000000000
 H   -5.930219938887   -2.396009175913    0.000000000000
 C   -4.120639938887    1.054460824087    0.000000000000
 H   -3.604709938887    2.020160824087    0.000000000000
 C   -4.026709938887   -1.369139175913    0.000000000000
 H   -3.437319938887   -2.291839175913    0.000000000000
 C   -3.314549938887   -0.127879175913    0.000000000000
 O   -2.009049938887   -0.077329175913    0.000000000000
LI   -0.268969938887   -0.010349175913    0.000000000000
 O    2.029328030323    0.078118019835    0.000000000000
 C    3.334830152617    0.128657104561    0.000000000000
 C    4.140920484669   -1.053680468627    0.000000000000
 H    3.624986025653   -2.019379100914    0.000000000000
 C    5.544272225856   -0.996406382793    0.000000000000
 H    6.118291320231   -1.929935692131    0.000000000000
 C    6.219021842878    0.240545643249    0.000000000000
 H    7.311814342816    0.282823109819    0.000000000000
 C    5.450547079195    1.421591129284    0.000000000000
 H    5.950511031872    2.396777788556    0.000000000000
 C    4.047007821288    1.369921877181    0.000000000000
 H    3.457621243683    2.292615639509    0.000000000000
