25

 C   -6.391330010326   -0.247182445984    0.000000000000
 H   -7.484120010326   -0.289462445984    0.000000000000
 C   -5.716580010326    0.989767554016    0.000000000000
 H   -6.290600010326    1.923297554016    0.000000000000
 C   -5.622850010326   -1.428222445984    0.000000000000
 H   -6.122810010326   -2.403422445984    0.000000000000
 C   -4.313230010326    1.047047554016    0.000000000000
 H   -3.797300010326    2.012747554016    0.000000000000
 C   -4.219300010326   -1.376552445984    0.000000000000
 H   -3.629910010326   -2.299252445984    0.000000000000
 C   -3.507140010326   -0.135292445984    0.000000000000
 O   -2.201640010326   -0.084742445984    0.000000000000
LI   -0.461560010326   -0.017762445984    0.000000000000
 O    2.236441953529    0.086090349025    0.000000000000
 C    3.541944075824    0.136629433751    0.000000000000
 C    4.348034407875   -1.045708139437    0.000000000000
 H    3.832099948860   -2.011406771724    0.000000000000
 C    5.751386149062   -0.988434053603    0.000000000000
 H    6.325405243437   -1.921963362941    0.000000000000
 C    6.426135766084    0.248517972438    0.000000000000
 H    7.518928266022    0.290795439009    0.000000000000
 C    5.657661002402    1.429563458473    0.000000000000
 H    6.157624955079    2.404750117746    0.000000000000
 C    4.254121744494    1.377894206371    0.000000000000
 H    3.664735166890    2.300587968699    0.000000000000
