25

 C   -6.439477528186   -0.249035763501    0.000000000000
 H   -7.532267528186   -0.291315763501    0.000000000000
 C   -5.764727528186    0.987914236499    0.000000000000
 H   -6.338747528186    1.921444236499    0.000000000000
 C   -5.670997528186   -1.430075763501    0.000000000000
 H   -6.170957528186   -2.405275763501    0.000000000000
 C   -4.361377528186    1.045194236499    0.000000000000
 H   -3.845447528186    2.010894236499    0.000000000000
 C   -4.267447528186   -1.378405763501    0.000000000000
 H   -3.678057528186   -2.301105763501    0.000000000000
 C   -3.555287528186   -0.137145763501    0.000000000000
 O   -2.249787528186   -0.086595763501    0.000000000000
LI   -0.509707528186   -0.019615763501    0.000000000000
 O    2.288220434331    0.088083431323    0.000000000000
 C    3.593722556625    0.138622516048    0.000000000000
 C    4.399812888677   -1.043715057140    0.000000000000
 H    3.883878429661   -2.009413689427    0.000000000000
 C    5.803164629864   -0.986440971306    0.000000000000
 H    6.377183724238   -1.919970280644    0.000000000000
 C    6.477914246886    0.250511054736    0.000000000000
 H    7.570706746824    0.292788521306    0.000000000000
 C    5.709439483203    1.431556540771    0.000000000000
 H    6.209403435880    2.406743200043    0.000000000000
 C    4.305900225296    1.379887288668    0.000000000000
 H    3.716513647691    2.302581050996    0.000000000000
