25

 C   -6.535772563906   -0.252742398537    0.000000000000
 H   -7.628562563906   -0.295022398537    0.000000000000
 C   -5.861022563906    0.984207601463    0.000000000000
 H   -6.435042563906    1.917737601463    0.000000000000
 C   -5.767292563906   -1.433782398537    0.000000000000
 H   -6.267252563906   -2.408982398537    0.000000000000
 C   -4.457672563906    1.041487601463    0.000000000000
 H   -3.941742563906    2.007187601463    0.000000000000
 C   -4.363742563906   -1.382112398537    0.000000000000
 H   -3.774352563906   -2.304812398537    0.000000000000
 C   -3.651582563906   -0.140852398537    0.000000000000
 O   -2.346082563906   -0.090302398537    0.000000000000
LI   -0.606002563906   -0.023322398537    0.000000000000
 O    2.391777395934    0.092069595917    0.000000000000
 C    3.697279518228    0.142608680643    0.000000000000
 C    4.503369850280   -1.039728892545    0.000000000000
 H    3.987435391264   -2.005427524832    0.000000000000
 C    5.906721591467   -0.982454806711    0.000000000000
 H    6.480740685842   -1.915984116049    0.000000000000
 C    6.581471208489    0.254497219331    0.000000000000
 H    7.674263708427    0.296774685901    0.000000000000
 C    5.812996444806    1.435542705365    0.000000000000
 H    6.312960397483    2.410729364638    0.000000000000
 C    4.409457186899    1.383873453263    0.000000000000
 H    3.820070609294    2.306567215591    0.000000000000
