25

 C   -6.583920081765   -0.254595716055    0.000000000000
 H   -7.676710081765   -0.296875716055    0.000000000000
 C   -5.909170081765    0.982354283945    0.000000000000
 H   -6.483190081765    1.915884283945    0.000000000000
 C   -5.815440081765   -1.435635716055    0.000000000000
 H   -6.315400081765   -2.410835716055    0.000000000000
 C   -4.505820081765    1.039634283945    0.000000000000
 H   -3.989890081765    2.005334283945    0.000000000000
 C   -4.411890081765   -1.383965716055    0.000000000000
 H   -3.822500081765   -2.306665716055    0.000000000000
 C   -3.699730081765   -0.142705716055    0.000000000000
 O   -2.394230081765   -0.092155716055    0.000000000000
LI   -0.654150081765   -0.025175716055    0.000000000000
 O    2.443555876736    0.094062678215    0.000000000000
 C    3.749057999030    0.144601762941    0.000000000000
 C    4.555148331081   -1.037735810248    0.000000000000
 H    4.039213872066   -2.003434442534    0.000000000000
 C    5.958500072268   -0.980461724413    0.000000000000
 H    6.532519166643   -1.913991033751    0.000000000000
 C    6.633249689290    0.256490301628    0.000000000000
 H    7.726042189228    0.298767768198    0.000000000000
 C    5.864774925608    1.437535787663    0.000000000000
 H    6.364738878285    2.412722446936    0.000000000000
 C    4.461235667700    1.385866535560    0.000000000000
 H    3.871849090096    2.308560297889    0.000000000000
