25

 C   -6.680215117485   -0.258302351090    0.000000000000
 H   -7.773005117485   -0.300582351090    0.000000000000
 C   -6.005465117485    0.978647648910    0.000000000000
 H   -6.579485117485    1.912177648910    0.000000000000
 C   -5.911735117485   -1.439342351090    0.000000000000
 H   -6.411695117485   -2.414542351090    0.000000000000
 C   -4.602115117485    1.035927648910    0.000000000000
 H   -4.086185117485    2.001627648910    0.000000000000
 C   -4.508185117485   -1.387672351090    0.000000000000
 H   -3.918795117485   -2.310372351090    0.000000000000
 C   -3.796025117485   -0.146412351090    0.000000000000
 O   -2.490525117485   -0.095862351090    0.000000000000
LI   -0.750445117485   -0.028882351090    0.000000000000
 O    2.547112838339    0.098048842810    0.000000000000
 C    3.852614960633    0.148587927536    0.000000000000
 C    4.658705292685   -1.033749645653    0.000000000000
 H    4.142770833669   -1.999448277940    0.000000000000
 C    6.062057033871   -0.976475559819    0.000000000000
 H    6.636076128246   -1.910004869157    0.000000000000
 C    6.736806650893    0.260476466223    0.000000000000
 H    7.829599150831    0.302753932793    0.000000000000
 C    5.968331887211    1.441521952258    0.000000000000
 H    6.468295839888    2.416708611530    0.000000000000
 C    4.564792629303    1.389852700155    0.000000000000
 H    3.975406051699    2.312546462483    0.000000000000
