25

 C   -6.824657671064   -0.263862303643    0.000000000000
 H   -7.917447671064   -0.306142303643    0.000000000000
 C   -6.149907671064    0.973087696357    0.000000000000
 H   -6.723927671064    1.906617696357    0.000000000000
 C   -6.056177671064   -1.444902303643    0.000000000000
 H   -6.556137671064   -2.420102303643    0.000000000000
 C   -4.746557671064    1.030367696357    0.000000000000
 H   -4.230627671064    1.996067696357    0.000000000000
 C   -4.652627671064   -1.393232303643    0.000000000000
 H   -4.063237671064   -2.315932303643    0.000000000000
 C   -3.940467671064   -0.151972303643    0.000000000000
 O   -2.634967671064   -0.101422303643    0.000000000000
LI   -0.894887671064   -0.034442303643    0.000000000000
 O    2.702448280743    0.104028089702    0.000000000000
 C    4.007950403038    0.154567174428    0.000000000000
 C    4.814040735089   -1.027770398761    0.000000000000
 H    4.298106276074   -1.993469031047    0.000000000000
 C    6.217392476276   -0.970496312926    0.000000000000
 H    6.791411570651   -1.904025622264    0.000000000000
 C    6.892142093298    0.266455713115    0.000000000000
 H    7.984934593236    0.308733179685    0.000000000000
 C    6.123667329616    1.447501199150    0.000000000000
 H    6.623631282292    2.422687858423    0.000000000000
 C    4.720128071708    1.395831947047    0.000000000000
 H    4.130741494104    2.318525709376    0.000000000000
