25

 C   -6.920952706784   -0.267568938679    0.000000000000
 H   -8.013742706784   -0.309848938679    0.000000000000
 C   -6.246202706784    0.969381061321    0.000000000000
 H   -6.820222706784    1.902911061321    0.000000000000
 C   -6.152472706784   -1.448608938679    0.000000000000
 H   -6.652432706784   -2.423808938679    0.000000000000
 C   -4.842852706784    1.026661061321    0.000000000000
 H   -4.326922706784    1.992361061321    0.000000000000
 C   -4.748922706784   -1.396938938679    0.000000000000
 H   -4.159532706784   -2.319638938679    0.000000000000
 C   -4.036762706784   -0.155678938679    0.000000000000
 O   -2.731262706784   -0.105128938679    0.000000000000
LI   -0.991182706784   -0.038148938679    0.000000000000
 O    2.806005242346    0.108014254297    0.000000000000
 C    4.111507364641    0.158553339023    0.000000000000
 C    4.917597696692   -1.023784234166    0.000000000000
 H    4.401663237677   -1.989482866452    0.000000000000
 C    6.320949437879   -0.966510148332    0.000000000000
 H    6.894968532254   -1.900039457669    0.000000000000
 C    6.995699054901    0.270441877710    0.000000000000
 H    8.088491554839    0.312719344280    0.000000000000
 C    6.227224291219    1.451487363745    0.000000000000
 H    6.727188243896    2.426674023018    0.000000000000
 C    4.823685033311    1.399818111642    0.000000000000
 H    4.234298455707    2.322511873970    0.000000000000
