25

 C   -7.065395260363   -0.273128891232    0.000000000000
 H   -8.158185260363   -0.315408891232    0.000000000000
 C   -6.390645260363    0.963821108768    0.000000000000
 H   -6.964665260363    1.897351108768    0.000000000000
 C   -6.296915260363   -1.454168891232    0.000000000000
 H   -6.796875260363   -2.429368891232    0.000000000000
 C   -4.987295260363    1.021101108768    0.000000000000
 H   -4.471365260363    1.986801108768    0.000000000000
 C   -4.893365260363   -1.402498891232    0.000000000000
 H   -4.303975260363   -2.325198891232    0.000000000000
 C   -4.181205260363   -0.161238891232    0.000000000000
 O   -2.875705260363   -0.110688891232    0.000000000000
LI   -1.135625260363   -0.043708891232    0.000000000000
 O    2.961340684751    0.113993501189    0.000000000000
 C    4.266842807045    0.164532585915    0.000000000000
 C    5.072933139097   -1.017804987274    0.000000000000
 H    4.556998680081   -1.983503619560    0.000000000000
 C    6.476284880284   -0.960530901439    0.000000000000
 H    7.050303974659   -1.894060210777    0.000000000000
 C    7.151034497306    0.276421124602    0.000000000000
 H    8.243826997244    0.318698591172    0.000000000000
 C    6.382559733623    1.457466610637    0.000000000000
 H    6.882523686300    2.432653269910    0.000000000000
 C    4.979020475716    1.405797358534    0.000000000000
 H    4.389633898111    2.328491120863    0.000000000000
