25

 C   -7.402427885381   -0.286102113856    0.000000000000
 H   -8.495217885381   -0.328382113856    0.000000000000
 C   -6.727677885381    0.950847886144    0.000000000000
 H   -7.301697885381    1.884377886144    0.000000000000
 C   -6.633947885381   -1.467142113856    0.000000000000
 H   -7.133907885381   -2.442342113856    0.000000000000
 C   -5.324327885381    1.008127886144    0.000000000000
 H   -4.808397885381    1.973827886144    0.000000000000
 C   -5.230397885381   -1.415472113856    0.000000000000
 H   -4.641007885381   -2.338172113856    0.000000000000
 C   -4.518237885381   -0.174212113856    0.000000000000
 O   -3.212737885381   -0.123662113856    0.000000000000
LI   -1.472657885381   -0.056682113856    0.000000000000
 O    3.323790050362    0.127945077271    0.000000000000
 C    4.629292172656    0.178484161997    0.000000000000
 C    5.435382504708   -1.003853411192    0.000000000000
 H    4.919448045692   -1.969552043478    0.000000000000
 C    6.838734245895   -0.946579325357    0.000000000000
 H    7.412753340269   -1.880108634695    0.000000000000
 C    7.513483862917    0.290372700684    0.000000000000
 H    8.606276362855    0.332650167254    0.000000000000
 C    6.745009099234    1.471418186719    0.000000000000
 H    7.244973051911    2.446604845992    0.000000000000
 C    5.341469841327    1.419748934616    0.000000000000
 H    4.752083263722    2.342442696945    0.000000000000
