25

 C   -7.450575403241   -0.287955431374    0.000000000000
 H   -8.543365403241   -0.330235431374    0.000000000000
 C   -6.775825403241    0.948994568626    0.000000000000
 H   -7.349845403241    1.882524568626    0.000000000000
 C   -6.682095403241   -1.468995431374    0.000000000000
 H   -7.182055403241   -2.444195431374    0.000000000000
 C   -5.372475403241    1.006274568626    0.000000000000
 H   -4.856545403241    1.971974568626    0.000000000000
 C   -5.278545403241   -1.417325431374    0.000000000000
 H   -4.689155403241   -2.340025431374    0.000000000000
 C   -4.566385403241   -0.176065431374    0.000000000000
 O   -3.260885403241   -0.125515431374    0.000000000000
LI   -1.520805403241   -0.058535431374    0.000000000000
 O    3.375568531163    0.129938159568    0.000000000000
 C    4.681070653458    0.180477244294    0.000000000000
 C    5.487160985509   -1.001860328894    0.000000000000
 H    4.971226526494   -1.967558961181    0.000000000000
 C    6.890512726696   -0.944586243060    0.000000000000
 H    7.464531821071   -1.878115552398    0.000000000000
 C    7.565262343718    0.292365782982    0.000000000000
 H    8.658054843656    0.334643249552    0.000000000000
 C    6.796787580036    1.473411269016    0.000000000000
 H    7.296751532713    2.448597928289    0.000000000000
 C    5.393248322128    1.421742016914    0.000000000000
 H    4.803861744524    2.344435779242    0.000000000000
