25

 C   -7.546870438961   -0.291662066409    0.000000000000
 H   -8.639660438961   -0.333942066409    0.000000000000
 C   -6.872120438961    0.945287933591    0.000000000000
 H   -7.446140438961    1.878817933591    0.000000000000
 C   -6.778390438961   -1.472702066409    0.000000000000
 H   -7.278350438961   -2.447902066409    0.000000000000
 C   -5.468770438961    1.002567933591    0.000000000000
 H   -4.952840438961    1.968267933591    0.000000000000
 C   -5.374840438961   -1.421032066409    0.000000000000
 H   -4.785450438961   -2.343732066409    0.000000000000
 C   -4.662680438961   -0.179772066409    0.000000000000
 O   -3.357180438961   -0.129222066409    0.000000000000
LI   -1.617100438961   -0.062242066409    0.000000000000
 O    3.479125492767    0.133924324163    0.000000000000
 C    4.784627615061    0.184463408889    0.000000000000
 C    5.590717947112   -0.997874164299    0.000000000000
 H    5.074783488097   -1.963572796586    0.000000000000
 C    6.994069688299   -0.940600078465    0.000000000000
 H    7.568088782674   -1.874129387803    0.000000000000
 C    7.668819305321    0.296351947576    0.000000000000
 H    8.761611805259    0.338629414147    0.000000000000
 C    6.900344541639    1.477397433611    0.000000000000
 H    7.400308494316    2.452584092884    0.000000000000
 C    5.496805283731    1.425728181509    0.000000000000
 H    4.907418706127    2.348421943837    0.000000000000
