25

 C   -7.691312992540   -0.297222018962    0.000000000000
 H   -8.784102992540   -0.339502018962    0.000000000000
 C   -7.016562992540    0.939727981038    0.000000000000
 H   -7.590582992540    1.873257981038    0.000000000000
 C   -6.922832992540   -1.478262018962    0.000000000000
 H   -7.422792992540   -2.453462018962    0.000000000000
 C   -5.613212992540    0.997007981038    0.000000000000
 H   -5.097282992540    1.962707981038    0.000000000000
 C   -5.519282992540   -1.426592018962    0.000000000000
 H   -4.929892992540   -2.349292018962    0.000000000000
 C   -4.807122992540   -0.185332018962    0.000000000000
 O   -3.501622992540   -0.134782018962    0.000000000000
LI   -1.761542992540   -0.067802018962    0.000000000000
 O    3.634460935171    0.139903571055    0.000000000000
 C    4.939963057466    0.190442655781    0.000000000000
 C    5.746053389517   -0.991894917407    0.000000000000
 H    5.230118930502   -1.957593549694    0.000000000000
 C    7.149405130704   -0.934620831573    0.000000000000
 H    7.723424225079   -1.868150140911    0.000000000000
 C    7.824154747726    0.302331194469    0.000000000000
 H    8.916947247664    0.344608661039    0.000000000000
 C    7.055679984043    1.483376680503    0.000000000000
 H    7.555643936720    2.458563339776    0.000000000000
 C    5.652140726136    1.431707428401    0.000000000000
 H    5.062754148531    2.354401190729    0.000000000000
