25

 C   -7.739460510400   -0.299075336480    0.000000000000
 H   -8.832250510400   -0.341355336480    0.000000000000
 C   -7.064710510400    0.937874663520    0.000000000000
 H   -7.638730510400    1.871404663520    0.000000000000
 C   -6.970980510400   -1.480115336480    0.000000000000
 H   -7.470940510400   -2.455315336480    0.000000000000
 C   -5.661360510400    0.995154663520    0.000000000000
 H   -5.145430510400    1.960854663520    0.000000000000
 C   -5.567430510400   -1.428445336480    0.000000000000
 H   -4.978040510400   -2.351145336480    0.000000000000
 C   -4.855270510400   -0.187185336480    0.000000000000
 O   -3.549770510400   -0.136635336480    0.000000000000
LI   -1.809690510400   -0.069655336480    0.000000000000
 O    3.686239415973    0.141896653353    0.000000000000
 C    4.991741538267    0.192435738079    0.000000000000
 C    5.797831870319   -0.989901835110    0.000000000000
 H    5.281897411303   -1.955600467396    0.000000000000
 C    7.201183611505   -0.932627749275    0.000000000000
 H    7.775202705880   -1.866157058613    0.000000000000
 C    7.875933228528    0.304324276766    0.000000000000
 H    8.968725728465    0.346601743336    0.000000000000
 C    7.107458464845    1.485369762801    0.000000000000
 H    7.607422417522    2.460556422074    0.000000000000
 C    5.703919206938    1.433700510698    0.000000000000
 H    5.114532629333    2.356394273027    0.000000000000
