25

 C   -8.124640653278   -0.313901876622    0.000000000000
 H   -9.217430653278   -0.356181876622    0.000000000000
 C   -7.449890653278    0.923048123378    0.000000000000
 H   -8.023910653278    1.856578123378    0.000000000000
 C   -7.356160653278   -1.494941876622    0.000000000000
 H   -7.856120653278   -2.470141876622    0.000000000000
 C   -6.046540653278    0.980328123378    0.000000000000
 H   -5.530610653278    1.946028123378    0.000000000000
 C   -5.952610653278   -1.443271876622    0.000000000000
 H   -5.363220653278   -2.365971876622    0.000000000000
 C   -5.240450653278   -0.202011876622    0.000000000000
 O   -3.934950653278   -0.151461876622    0.000000000000
LI   -2.194870653278   -0.084481876622    0.000000000000
 O    4.100467262385    0.157841311732    0.000000000000
 C    5.405969384679    0.208380396458    0.000000000000
 C    6.212059716731   -0.973957176730    0.000000000000
 H    5.696125257715   -1.939655809017    0.000000000000
 C    7.615411457918   -0.916683090896    0.000000000000
 H    8.189430552293   -1.850212400234    0.000000000000
 C    8.290161074940    0.320268935145    0.000000000000
 H    9.382953574878    0.362546401716    0.000000000000
 C    7.521686311257    1.501314421180    0.000000000000
 H    8.021650263934    2.476501080453    0.000000000000
 C    6.118147053350    1.449645169078    0.000000000000
 H    5.528760475745    2.372338931406    0.000000000000
