25

 C   -8.365378242577   -0.323168464211    0.000000000000
 H   -9.458168242577   -0.365448464211    0.000000000000
 C   -7.690628242577    0.913781535789    0.000000000000
 H   -8.264648242577    1.847311535789    0.000000000000
 C   -7.596898242577   -1.504208464211    0.000000000000
 H   -8.096858242577   -2.479408464211    0.000000000000
 C   -6.287278242577    0.971061535789    0.000000000000
 H   -5.771348242577    1.936761535789    0.000000000000
 C   -6.193348242577   -1.452538464211    0.000000000000
 H   -5.603958242577   -2.375238464211    0.000000000000
 C   -5.481188242577   -0.211278464211    0.000000000000
 O   -4.175688242577   -0.160728464211    0.000000000000
LI   -2.435608242577   -0.093748464211    0.000000000000
 O    4.359359666393    0.167806723219    0.000000000000
 C    5.664861788687    0.218345807945    0.000000000000
 C    6.470952120739   -0.963991765243    0.000000000000
 H    5.955017661723   -1.929690397530    0.000000000000
 C    7.874303861926   -0.906717679409    0.000000000000
 H    8.448322956300   -1.840246988747    0.000000000000
 C    8.549053478948    0.330234346633    0.000000000000
 H    9.641845978886    0.372511813203    0.000000000000
 C    7.780578715265    1.511279832667    0.000000000000
 H    8.280542667942    2.486466491940    0.000000000000
 C    6.377039457358    1.459610580565    0.000000000000
 H    5.787652879753    2.382304342893    0.000000000000
