25

 C   -8.413525760437   -0.325021781728    0.000000000000
 H   -9.506315760437   -0.367301781728    0.000000000000
 C   -7.738775760437    0.911928218272    0.000000000000
 H   -8.312795760437    1.845458218272    0.000000000000
 C   -7.645045760437   -1.506061781728    0.000000000000
 H   -8.145005760437   -2.481261781728    0.000000000000
 C   -6.335425760437    0.969208218272    0.000000000000
 H   -5.819495760437    1.934908218272    0.000000000000
 C   -6.241495760437   -1.454391781728    0.000000000000
 H   -5.652105760437   -2.377091781728    0.000000000000
 C   -5.529335760437   -0.213131781728    0.000000000000
 O   -4.223835760437   -0.162581781728    0.000000000000
LI   -2.483755760437   -0.095601781728    0.000000000000
 O    4.411138147194    0.169799805517    0.000000000000
 C    5.716640269489    0.220338890243    0.000000000000
 C    6.522730601540   -0.961998682946    0.000000000000
 H    6.006796142525   -1.927697315233    0.000000000000
 C    7.926082342727   -0.904724597112    0.000000000000
 H    8.500101437102   -1.838253906450    0.000000000000
 C    8.600831959749    0.332227428930    0.000000000000
 H    9.693624459687    0.374504895500    0.000000000000
 C    7.832357196067    1.513272914965    0.000000000000
 H    8.332321148744    2.488459574237    0.000000000000
 C    6.428817938159    1.461603662862    0.000000000000
 H    5.839431360555    2.384297425190    0.000000000000
