25

 C   -8.606115831876   -0.332435051799    0.000000000000
 H   -9.698905831876   -0.374715051799    0.000000000000
 C   -7.931365831876    0.904514948201    0.000000000000
 H   -8.505385831876    1.838044948201    0.000000000000
 C   -7.837635831876   -1.513475051799    0.000000000000
 H   -8.337595831876   -2.488675051799    0.000000000000
 C   -6.528015831876    0.961794948201    0.000000000000
 H   -6.012085831876    1.927494948201    0.000000000000
 C   -6.434085831876   -1.461805051799    0.000000000000
 H   -5.844695831876   -2.384505051799    0.000000000000
 C   -5.721925831876   -0.220545051799    0.000000000000
 O   -4.416425831876   -0.169995051799    0.000000000000
LI   -2.676345831876   -0.103015051799    0.000000000000
 O    4.618252070401    0.177772134706    0.000000000000
 C    5.923754192695    0.228311219432    0.000000000000
 C    6.729844524747   -0.954026353756    0.000000000000
 H    6.213910065731   -1.919724986043    0.000000000000
 C    8.133196265933   -0.896752267922    0.000000000000
 H    8.707215360308   -1.830281577260    0.000000000000
 C    8.807945882955    0.340199758120    0.000000000000
 H    9.900738382893    0.382477224690    0.000000000000
 C    8.039471119273    1.521245244154    0.000000000000
 H    8.539435071950    2.496431903427    0.000000000000
 C    6.635931861365    1.469575992052    0.000000000000
 H    6.046545283761    2.392269754380    0.000000000000
