25

 C   -8.798705903315   -0.339848321870    0.000000000000
 H   -9.891495903315   -0.382128321870    0.000000000000
 C   -8.123955903315    0.897101678130    0.000000000000
 H   -8.697975903315    1.830631678130    0.000000000000
 C   -8.030225903315   -1.520888321870    0.000000000000
 H   -8.530185903315   -2.496088321870    0.000000000000
 C   -6.720605903315    0.954381678130    0.000000000000
 H   -6.204675903315    1.920081678130    0.000000000000
 C   -6.626675903315   -1.469218321870    0.000000000000
 H   -6.037285903315   -2.391918321870    0.000000000000
 C   -5.914515903315   -0.227958321870    0.000000000000
 O   -4.609015903315   -0.177408321870    0.000000000000
LI   -2.868935903315   -0.110428321870    0.000000000000
 O    4.825365993607    0.185744463896    0.000000000000
 C    6.130868115901    0.236283548622    0.000000000000
 C    6.936958447953   -0.946054024567    0.000000000000
 H    6.421023988937   -1.911752656853    0.000000000000
 C    8.340310189139   -0.888779938732    0.000000000000
 H    8.914329283514   -1.822309248070    0.000000000000
 C    9.015059806162    0.348172087309    0.000000000000
 H   10.107852306099    0.390449553879    0.000000000000
 C    8.246585042479    1.529217573344    0.000000000000
 H    8.746548995156    2.504404232617    0.000000000000
 C    6.843045784572    1.477548321241    0.000000000000
 H    6.253659206967    2.400242083570    0.000000000000
