25

 C   -8.846853421175   -0.341701639388    0.000000000000
 H   -9.939643421175   -0.383981639388    0.000000000000
 C   -8.172103421175    0.895248360612    0.000000000000
 H   -8.746123421175    1.828778360612    0.000000000000
 C   -8.078373421175   -1.522741639388    0.000000000000
 H   -8.578333421175   -2.497941639388    0.000000000000
 C   -6.768753421175    0.952528360612    0.000000000000
 H   -6.252823421175    1.918228360612    0.000000000000
 C   -6.674823421175   -1.471071639388    0.000000000000
 H   -6.085433421175   -2.393771639388    0.000000000000
 C   -5.962663421175   -0.229811639388    0.000000000000
 O   -4.657163421175   -0.179261639388    0.000000000000
LI   -2.917083421175   -0.112281639388    0.000000000000
 O    4.877144474408    0.187737546193    0.000000000000
 C    6.182646596703    0.238276630919    0.000000000000
 C    6.988736928754   -0.944060942269    0.000000000000
 H    6.472802469739   -1.909759574556    0.000000000000
 C    8.392088669941   -0.886786856435    0.000000000000
 H    8.966107764316   -1.820316165773    0.000000000000
 C    9.066838286963    0.350165169607    0.000000000000
 H   10.159630786901    0.392442636177    0.000000000000
 C    8.298363523281    1.531210655641    0.000000000000
 H    8.798327475958    2.506397314914    0.000000000000
 C    6.894824265373    1.479541403539    0.000000000000
 H    6.305437687769    2.402235165867    0.000000000000
