25

 C   -8.943148456894   -0.345408274423    0.000000000000
 H  -10.035938456894   -0.387688274423    0.000000000000
 C   -8.268398456894    0.891541725577    0.000000000000
 H   -8.842418456894    1.825071725577    0.000000000000
 C   -8.174668456894   -1.526448274423    0.000000000000
 H   -8.674628456894   -2.501648274423    0.000000000000
 C   -6.865048456894    0.948821725577    0.000000000000
 H   -6.349118456894    1.914521725577    0.000000000000
 C   -6.771118456894   -1.474778274423    0.000000000000
 H   -6.181728456894   -2.397478274423    0.000000000000
 C   -6.058958456894   -0.233518274423    0.000000000000
 O   -4.753458456894   -0.182968274423    0.000000000000
LI   -3.013378456894   -0.115988274423    0.000000000000
 O    4.980701436011    0.191723710788    0.000000000000
 C    6.286203558306    0.242262795514    0.000000000000
 C    7.092293890357   -0.940074777674    0.000000000000
 H    6.576359431342   -1.905773409961    0.000000000000
 C    8.495645631544   -0.882800691840    0.000000000000
 H    9.069664725919   -1.816330001178    0.000000000000
 C    9.170395248566    0.354151334202    0.000000000000
 H   10.263187748504    0.396428800772    0.000000000000
 C    8.401920484884    1.535196820236    0.000000000000
 H    8.901884437561    2.510383479509    0.000000000000
 C    6.998381226976    1.483527568134    0.000000000000
 H    6.408994649372    2.406221330462    0.000000000000
