25

 C   -8.991295974754   -0.347261591941    0.000000000000
 H  -10.084085974754   -0.389541591941    0.000000000000
 C   -8.316545974754    0.889688408059    0.000000000000
 H   -8.890565974754    1.823218408059    0.000000000000
 C   -8.222815974754   -1.528301591941    0.000000000000
 H   -8.722775974754   -2.503501591941    0.000000000000
 C   -6.913195974754    0.946968408059    0.000000000000
 H   -6.397265974754    1.912668408059    0.000000000000
 C   -6.819265974754   -1.476631591941    0.000000000000
 H   -6.229875974754   -2.399331591941    0.000000000000
 C   -6.107105974754   -0.235371591941    0.000000000000
 O   -4.801605974754   -0.184821591941    0.000000000000
LI   -3.061525974754   -0.117841591941    0.000000000000
 O    5.032479916813    0.193716793086    0.000000000000
 C    6.337982039107    0.244255877812    0.000000000000
 C    7.144072371159   -0.938081695377    0.000000000000
 H    6.628137912143   -1.903780327664    0.000000000000
 C    8.547424112346   -0.880807609543    0.000000000000
 H    9.121443206721   -1.814336918881    0.000000000000
 C    9.222173729368    0.356144416499    0.000000000000
 H   10.314966229306    0.398421883069    0.000000000000
 C    8.453698965685    1.537189902534    0.000000000000
 H    8.953662918362    2.512376561806    0.000000000000
 C    7.050159707778    1.485520650431    0.000000000000
 H    6.460773130173    2.408214412759    0.000000000000
