25

 C   -9.183886046193   -0.354674862012    0.000000000000
 H  -10.276676046193   -0.396954862012    0.000000000000
 C   -8.509136046193    0.882275137988    0.000000000000
 H   -9.083156046193    1.815805137988    0.000000000000
 C   -8.415406046193   -1.535714862012    0.000000000000
 H   -8.915366046193   -2.510914862012    0.000000000000
 C   -7.105786046193    0.939555137988    0.000000000000
 H   -6.589856046193    1.905255137988    0.000000000000
 C   -7.011856046193   -1.484044862012    0.000000000000
 H   -6.422466046193   -2.406744862012    0.000000000000
 C   -6.299696046193   -0.242784862012    0.000000000000
 O   -4.994196046193   -0.192234862012    0.000000000000
LI   -3.254116046193   -0.125254862012    0.000000000000
 O    5.239593840019    0.201689122275    0.000000000000
 C    6.545095962314    0.252228207001    0.000000000000
 C    7.351186294365   -0.930109366187    0.000000000000
 H    6.835251835350   -1.895807998474    0.000000000000
 C    8.754538035552   -0.872835280353    0.000000000000
 H    9.328557129927   -1.806364589691    0.000000000000
 C    9.429287652574    0.364116745689    0.000000000000
 H   10.522080152512    0.406394212259    0.000000000000
 C    8.660812888891    1.545162231723    0.000000000000
 H    9.160776841568    2.520348890996    0.000000000000
 C    7.257273630984    1.493492979621    0.000000000000
 H    6.667887053379    2.416186741949    0.000000000000
