25

 C   -9.232033564053   -0.356528179530    0.000000000000
 H  -10.324823564053   -0.398808179530    0.000000000000
 C   -8.557283564053    0.880421820470    0.000000000000
 H   -9.131303564053    1.813951820470    0.000000000000
 C   -8.463553564053   -1.537568179530    0.000000000000
 H   -8.963513564053   -2.512768179530    0.000000000000
 C   -7.153933564053    0.937701820470    0.000000000000
 H   -6.638003564053    1.903401820470    0.000000000000
 C   -7.060003564053   -1.485898179530    0.000000000000
 H   -6.470613564053   -2.408598179530    0.000000000000
 C   -6.347843564053   -0.244638179530    0.000000000000
 O   -5.042343564053   -0.194088179530    0.000000000000
LI   -3.302263564053   -0.127108179530    0.000000000000
 O    5.291372320821    0.203682204573    0.000000000000
 C    6.596874443115    0.254221289299    0.000000000000
 C    7.402964775167   -0.928116283890    0.000000000000
 H    6.887030316151   -1.893814916176    0.000000000000
 C    8.806316516353   -0.870842198056    0.000000000000
 H    9.380335610728   -1.804371507393    0.000000000000
 C    9.481066133376    0.366109827986    0.000000000000
 H   10.573858633313    0.408387294556    0.000000000000
 C    8.712591369693    1.547155314021    0.000000000000
 H    9.212555322370    2.522341973294    0.000000000000
 C    7.309052111786    1.495486061918    0.000000000000
 H    6.719665534181    2.418179824246    0.000000000000
