25

 C   -9.328328599772   -0.360234814565    0.000000000000
 H  -10.421118599772   -0.402514814565    0.000000000000
 C   -8.653578599772    0.876715185435    0.000000000000
 H   -9.227598599772    1.810245185435    0.000000000000
 C   -8.559848599772   -1.541274814565    0.000000000000
 H   -9.059808599772   -2.516474814565    0.000000000000
 C   -7.250228599772    0.933995185435    0.000000000000
 H   -6.734298599772    1.899695185435    0.000000000000
 C   -7.156298599772   -1.489604814565    0.000000000000
 H   -6.566908599772   -2.412304814565    0.000000000000
 C   -6.444138599772   -0.248344814565    0.000000000000
 O   -5.138638599772   -0.197794814565    0.000000000000
LI   -3.398558599772   -0.130814814565    0.000000000000
 O    5.394929282424    0.207668369168    0.000000000000
 C    6.700431404718    0.258207453893    0.000000000000
 C    7.506521736770   -0.924130119295    0.000000000000
 H    6.990587277754   -1.889828751582    0.000000000000
 C    8.909873477957   -0.866856033461    0.000000000000
 H    9.483892572331   -1.800385342799    0.000000000000
 C    9.584623094979    0.370095992581    0.000000000000
 H   10.677415594917    0.412373459151    0.000000000000
 C    8.816148331296    1.551141478616    0.000000000000
 H    9.316112283973    2.526328137888    0.000000000000
 C    7.412609073389    1.499472226513    0.000000000000
 H    6.823222495784    2.422165988841    0.000000000000
