25

 C   -9.424623635492   -0.363941449601    0.000000000000
 H  -10.517413635492   -0.406221449601    0.000000000000
 C   -8.749873635492    0.873008550399    0.000000000000
 H   -9.323893635492    1.806538550399    0.000000000000
 C   -8.656143635492   -1.544981449601    0.000000000000
 H   -9.156103635492   -2.520181449601    0.000000000000
 C   -7.346523635492    0.930288550399    0.000000000000
 H   -6.830593635492    1.895988550399    0.000000000000
 C   -7.252593635492   -1.493311449601    0.000000000000
 H   -6.663203635492   -2.416011449601    0.000000000000
 C   -6.540433635492   -0.252051449601    0.000000000000
 O   -5.234933635492   -0.201501449601    0.000000000000
LI   -3.494853635492   -0.134521449601    0.000000000000
 O    5.498486244027    0.211654533762    0.000000000000
 C    6.803988366321    0.262193618488    0.000000000000
 C    7.610078698373   -0.920143954700    0.000000000000
 H    7.094144239357   -1.885842586987    0.000000000000
 C    9.013430439560   -0.862869868866    0.000000000000
 H    9.587449533935   -1.796399178204    0.000000000000
 C    9.688180056582    0.374082157176    0.000000000000
 H   10.780972556520    0.416359623746    0.000000000000
 C    8.919705292899    1.555127643210    0.000000000000
 H    9.419669245576    2.530314302483    0.000000000000
 C    7.516166034992    1.503458391108    0.000000000000
 H    6.926779457387    2.426152153436    0.000000000000
