25

 C   -9.617213706931   -0.371354719672    0.000000000000
 H  -10.710003706931   -0.413634719672    0.000000000000
 C   -8.942463706931    0.865595280328    0.000000000000
 H   -9.516483706931    1.799125280328    0.000000000000
 C   -8.848733706931   -1.552394719672    0.000000000000
 H   -9.348693706931   -2.527594719672    0.000000000000
 C   -7.539113706931    0.922875280328    0.000000000000
 H   -7.023183706931    1.888575280328    0.000000000000
 C   -7.445183706931   -1.500724719672    0.000000000000
 H   -6.855793706931   -2.423424719672    0.000000000000
 C   -6.733023706931   -0.259464719672    0.000000000000
 O   -5.427523706931   -0.208914719672    0.000000000000
LI   -3.687443706931   -0.141934719672    0.000000000000
 O    5.705600167233    0.219626862952    0.000000000000
 C    7.011102289528    0.270165947678    0.000000000000
 C    7.817192621579   -0.912171625510    0.000000000000
 H    7.301258162564   -1.877870257797    0.000000000000
 C    9.220544362766   -0.854897539676    0.000000000000
 H    9.794563457141   -1.788426849014    0.000000000000
 C    9.895293979788    0.382054486365    0.000000000000
 H   10.988086479726    0.424331952936    0.000000000000
 C    9.126819216105    1.563099972400    0.000000000000
 H    9.626783168782    2.538286631673    0.000000000000
 C    7.723279958198    1.511430720297    0.000000000000
 H    7.133893380593    2.434124482626    0.000000000000
