25

 C   -9.713508742650   -0.375061354707    0.000000000000
 H  -10.806298742650   -0.417341354707    0.000000000000
 C   -9.038758742650    0.861888645293    0.000000000000
 H   -9.612778742650    1.795418645293    0.000000000000
 C   -8.945028742650   -1.556101354707    0.000000000000
 H   -9.444988742650   -2.531301354707    0.000000000000
 C   -7.635408742650    0.919168645293    0.000000000000
 H   -7.119478742650    1.884868645293    0.000000000000
 C   -7.541478742650   -1.504431354707    0.000000000000
 H   -6.952088742650   -2.427131354707    0.000000000000
 C   -6.829318742650   -0.263171354707    0.000000000000
 O   -5.523818742650   -0.212621354707    0.000000000000
LI   -3.783738742650   -0.145641354707    0.000000000000
 O    5.809157128836    0.223613027547    0.000000000000
 C    7.114659251131    0.274152112273    0.000000000000
 C    7.920749583182   -0.908185460916    0.000000000000
 H    7.404815124167   -1.873884093202    0.000000000000
 C    9.324101324369   -0.850911375081    0.000000000000
 H    9.898120418744   -1.784440684419    0.000000000000
 C    9.998850941391    0.386040650960    0.000000000000
 H   11.091643441329    0.428318117530    0.000000000000
 C    9.230376177708    1.567086136995    0.000000000000
 H    9.730340130385    2.542272796268    0.000000000000
 C    7.826836919801    1.515416884892    0.000000000000
 H    7.237450342197    2.438110647221    0.000000000000
