25

 C   -9.761656260510   -0.376914672225    0.000000000000
 H  -10.854446260510   -0.419194672225    0.000000000000
 C   -9.086906260510    0.860035327775    0.000000000000
 H   -9.660926260510    1.793565327775    0.000000000000
 C   -8.993176260510   -1.557954672225    0.000000000000
 H   -9.493136260510   -2.533154672225    0.000000000000
 C   -7.683556260510    0.917315327775    0.000000000000
 H   -7.167626260510    1.883015327775    0.000000000000
 C   -7.589626260510   -1.506284672225    0.000000000000
 H   -7.000236260510   -2.428984672225    0.000000000000
 C   -6.877466260510   -0.265024672225    0.000000000000
 O   -5.571966260510   -0.214474672225    0.000000000000
LI   -3.831886260510   -0.147494672225    0.000000000000
 O    5.860935609638    0.225606109844    0.000000000000
 C    7.166437731932    0.276145194570    0.000000000000
 C    7.972528063984   -0.906192378618    0.000000000000
 H    7.456593604968   -1.871891010905    0.000000000000
 C    9.375879805170   -0.848918292784    0.000000000000
 H    9.949898899545   -1.782447602122    0.000000000000
 C   10.050629422193    0.388033733258    0.000000000000
 H   11.143421922130    0.430311199828    0.000000000000
 C    9.282154658510    1.569079219292    0.000000000000
 H    9.782118611187    2.544265878565    0.000000000000
 C    7.878615400603    1.517409967190    0.000000000000
 H    7.289228822998    2.440103729518    0.000000000000
