25

 C   -9.857951296230   -0.380621307260    0.000000000000
 H  -10.950741296230   -0.422901307260    0.000000000000
 C   -9.183201296230    0.856328692740    0.000000000000
 H   -9.757221296230    1.789858692740    0.000000000000
 C   -9.089471296230   -1.561661307260    0.000000000000
 H   -9.589431296230   -2.536861307260    0.000000000000
 C   -7.779851296230    0.913608692740    0.000000000000
 H   -7.263921296230    1.879308692740    0.000000000000
 C   -7.685921296230   -1.509991307260    0.000000000000
 H   -7.096531296230   -2.432691307260    0.000000000000
 C   -6.973761296230   -0.268731307260    0.000000000000
 O   -5.668261296230   -0.218181307260    0.000000000000
LI   -3.928181296230   -0.151201307260    0.000000000000
 O    5.964492571241    0.229592274439    0.000000000000
 C    7.269994693535    0.280131359165    0.000000000000
 C    8.076085025587   -0.902206214023    0.000000000000
 H    7.560150566571   -1.867904846310    0.000000000000
 C    9.479436766774   -0.844932128189    0.000000000000
 H   10.053455861149   -1.778461437527    0.000000000000
 C   10.154186383796    0.392019897852    0.000000000000
 H   11.246978883734    0.434297364423    0.000000000000
 C    9.385711620113    1.573065383887    0.000000000000
 H    9.885675572790    2.548252043160    0.000000000000
 C    7.982172362206    1.521396131785    0.000000000000
 H    7.392785784601    2.444089894113    0.000000000000
