13

 N   -2.945585903571    1.884186957513    0.000845583216
 C   -1.771846320488    2.611559149023    0.000533104046
 H   -1.889563180551    3.696877608067    0.000417256487
 C   -2.991361876651    0.490975165646    0.000460528647
 O   -4.042950045207   -0.143128148195    0.000803895751
 N   -1.730921335510   -0.092494890486    0.000877431969
 H   -1.721105538387   -1.110780002352    0.000850127874
 C   -0.469667046277    0.543560596477    0.000894526805
 O    0.564025881791   -0.125703237939    0.000148861141
 C   -0.551145838037    2.004107657867    0.000394629358
 H    0.372254300265    2.581167916733    0.000053952581
 H   -3.849323079519    2.343841078873    0.000643931616
CS    1.487388374564   -0.723533701600   -0.000517216460
