13

 N   -2.991134554552    1.913677402866    0.000878440232
 C   -1.817394971469    2.641049594376    0.000565961062
 H   -1.935111831532    3.726368053420    0.000450113503
 C   -3.036910527632    0.520465610999    0.000493385663
 O   -4.088498696188   -0.113637702842    0.000836752767
 N   -1.776469986491   -0.063004445133    0.000910288985
 H   -1.766654189368   -1.081289556999    0.000882984890
 C   -0.515215697258    0.573051041830    0.000927383821
 O    0.518477230810   -0.096212792586    0.000181718157
 C   -0.596694489018    2.033598103220    0.000427486374
 H    0.326705649284    2.610658362086    0.000086809597
 H   -3.894871730500    2.373331524226    0.000676788632
CS    1.525781768381   -0.748391480215   -0.000544911954
