13

 N   -3.036683205533    1.943167848220    0.000911297248
 C   -1.862943622450    2.670540039730    0.000598818078
 H   -1.980660482513    3.755858498774    0.000482970519
 C   -3.082459178613    0.549956056353    0.000526242679
 O   -4.134047347169   -0.084147257488    0.000869609783
 N   -1.822018637472   -0.033513999779    0.000943146001
 H   -1.812202840349   -1.051799111645    0.000915841906
 C   -0.560764348239    0.602541487184    0.000960240837
 O    0.472928579829   -0.066722347232    0.000214575173
 C   -0.642243139999    2.063088548574    0.000460343390
 H    0.281156998303    2.640148807440    0.000119666613
 H   -3.940420381481    2.402821969580    0.000709645648
CS    1.564175162198   -0.773249258830   -0.000572607447
