13

 N   -3.173329158475    2.031639184282    0.001009868296
 C   -1.999589575392    2.759011375792    0.000697389126
 H   -2.117306435455    3.844329834836    0.000581541567
 C   -3.219105131555    0.638427392415    0.000624813727
 O   -4.270693300111    0.004324078574    0.000968180831
 N   -1.958664590414    0.054957336283    0.001041717049
 H   -1.948848793291   -0.963327775583    0.001014412954
 C   -0.697410301181    0.691012823246    0.001058811885
 O    0.336282626887    0.021748988830    0.000313146221
 C   -0.778889092941    2.151559884636    0.000558914438
 H    0.144511045361    2.728620143502    0.000218237661
 H   -4.077066334423    2.491293305642    0.000808216696
CS    1.679355343648   -0.847822594676   -0.000655693927
