13

 N   -6.999415840849    4.508836594000    0.003769857640
 C   -5.825676257766    5.236208785510    0.003457378470
 H   -5.943393117829    6.321527244554    0.003341530911
 C   -7.045191813929    3.115624802133    0.003384803071
 O   -8.096779982485    2.481521488292    0.003728170175
 N   -5.784751272788    2.532154746001    0.003801706393
 H   -5.774935475665    1.513869634135    0.003774402298
 C   -4.523496983555    3.168210232964    0.003818801229
 O   -3.489804055487    2.498946398548    0.003073135565
 C   -4.604975775315    4.628757294354    0.003318903782
 H   -3.681575637013    5.205817553220    0.002978227005
 H   -7.903153016797    4.968490715360    0.003568206040
CS    4.904400424269   -2.935875998364   -0.002982115358
