13

 N   -3.401072413378    2.179091411050    0.001174153376
 C   -2.227332830295    2.906463602560    0.000861674206
 H   -2.345049690358    3.991782061604    0.000745826647
 C   -3.446848386458    0.785879619183    0.000789098807
 O   -4.498436555014    0.151776305342    0.001132465911
 N   -2.186407845317    0.202409563051    0.001206002129
 H   -2.176592048194   -0.815875548815    0.001178698034
 C   -0.925153556084    0.838465050014    0.001223096965
 O    0.108539371984    0.169201215598    0.000477431301
 C   -1.006632347844    2.299012111404    0.000723199518
 H   -0.083232209542    2.876072370270    0.000382522741
 H   -4.304809589326    2.638745532410    0.000972501776
CS    1.871322312733   -0.972111487753   -0.000794171393
