13

 N   -3.628815668281    2.326543637819    0.001338438456
 C   -2.455076085198    3.053915829329    0.001025959286
 H   -2.572792945261    4.139234288373    0.000910111727
 C   -3.674591641361    0.933331845952    0.000953383887
 O   -4.726179809917    0.299228532111    0.001296750991
 N   -2.414151100220    0.349861789820    0.001370287209
 H   -2.404335303097   -0.668423322046    0.001342983114
 C   -1.152896810987    0.985917276783    0.001387382045
 O   -0.119203882919    0.316653442367    0.000641716381
 C   -1.234375602747    2.446464338173    0.000887484598
 H   -0.310975464445    3.023524597039    0.000546807821
 H   -4.532552844229    2.786197759179    0.001136786856
CS    2.063289281817   -1.096400380830   -0.000932648859
