13

 N   -4.129850829068    2.650938536711    0.001699865632
 C   -2.956111245985    3.378310728221    0.001387386462
 H   -3.073828106048    4.463629187265    0.001271538903
 C   -4.175626802148    1.257726744844    0.001314811063
 O   -5.227214970704    0.623623431003    0.001658178167
 N   -2.915186261007    0.674256688712    0.001731714385
 H   -2.905370463884   -0.344028423154    0.001704410290
 C   -1.653931971774    1.310312175675    0.001748809221
 O   -0.620239043706    0.641048341259    0.001003143557
 C   -1.735410763534    2.770859237065    0.001248911774
 H   -0.812010625232    3.347919495931    0.000908234997
 H   -5.033588005016    3.110592658071    0.001498214032
CS    2.485616613804   -1.369835945598   -0.001237299284
