13

 N   -4.175399480049    2.680428982065    0.001732722648
 C   -3.001659896966    3.407801173575    0.001420243478
 H   -3.119376757029    4.493119632619    0.001304395919
 C   -4.221175453129    1.287217190198    0.001347668079
 O   -5.272763621685    0.653113876357    0.001691035183
 N   -2.960734911988    0.703747134066    0.001764571401
 H   -2.950919114865   -0.314537977800    0.001737267306
 C   -1.699480622755    1.339802621029    0.001781666237
 O   -0.665787694687    0.670538786613    0.001036000573
 C   -1.780959414515    2.800349682419    0.001281768790
 H   -0.857559276213    3.377409941285    0.000941092013
 H   -5.079136655997    3.140083103425    0.001531071048
CS    2.524010007620   -1.394693724214   -0.001264994778
