13

 N   -4.266496782010    2.739409872772    0.001798436680
 C   -3.092757198927    3.466782064282    0.001485957510
 H   -3.210474058990    4.552100523326    0.001370109951
 C   -4.312272755090    1.346198080905    0.001413382111
 O   -5.363860923646    0.712094767064    0.001756749215
 N   -3.051832213949    0.762728024773    0.001830285433
 H   -3.042016416826   -0.255557087093    0.001802981338
 C   -1.790577924716    1.398783511736    0.001847380269
 O   -0.756884996648    0.729519677320    0.001101714605
 C   -1.872056716476    2.859330573126    0.001347482822
 H   -0.948656578174    3.436390831992    0.001006806045
 H   -5.170233957958    3.199063994132    0.001596785080
CS    2.600796795254   -1.444409281444   -0.001320385764
