13

 N   -4.403142734952    2.827881208834    0.001897007728
 C   -3.229403151869    3.555253400344    0.001584528558
 H   -3.347120011932    4.640571859388    0.001468680999
 C   -4.448918708032    1.434669416967    0.001511953159
 O   -5.500506876588    0.800566103126    0.001855320263
 N   -3.188478166891    0.851199360835    0.001928856481
 H   -3.178662369768   -0.167085751031    0.001901552386
 C   -1.927223877658    1.487254847798    0.001945951317
 O   -0.893530949590    0.817991013382    0.001200285653
 C   -2.008702669418    2.947801909188    0.001446053870
 H   -1.085302531116    3.524862168054    0.001105377093
 H   -5.306879910900    3.287535330194    0.001695356128
CS    2.715976976705   -1.518982617290   -0.001403472244
