13

 N   -4.448691385933    2.857371654188    0.001929864744
 C   -3.274951802850    3.584743845698    0.001617385574
 H   -3.392668662913    4.670062304742    0.001501538015
 C   -4.494467359013    1.464159862321    0.001544810175
 O   -5.546055527569    0.830056548480    0.001888177279
 N   -3.234026817872    0.880689806189    0.001961713497
 H   -3.224211020749   -0.137595305677    0.001934409402
 C   -1.972772528639    1.516745293152    0.001978808333
 O   -0.939079600571    0.847481458736    0.001233142669
 C   -2.054251320399    2.977292354542    0.001478910886
 H   -1.130851182097    3.554352613408    0.001138234109
 H   -5.352428561881    3.317025775548    0.001728213144
CS    2.754370370522   -1.543840395906   -0.001431167737
