13

 N   -4.539788687894    2.916352544895    0.001995578776
 C   -3.366049104811    3.643724736405    0.001683099606
 H   -3.483765964874    4.729043195449    0.001567252047
 C   -4.585564660974    1.523140753028    0.001610524207
 O   -5.637152829530    0.889037439187    0.001953891311
 N   -3.325124119833    0.939670696896    0.002027427529
 H   -3.315308322710   -0.078614414970    0.002000123434
 C   -2.063869830600    1.575726183859    0.002044522365
 O   -1.030176902532    0.906462349443    0.001298856701
 C   -2.145348622360    3.036273245249    0.001544624918
 H   -1.221948484058    3.613333504115    0.001203948141
 H   -5.443525863842    3.376006666255    0.001793927176
CS    2.831157158156   -1.593555953136   -0.001486558724
