13

 N   -4.585337338875    2.945842990249    0.002028435792
 C   -3.411597755792    3.673215181759    0.001715956622
 H   -3.529314615855    4.758533640803    0.001600109063
 C   -4.631113311955    1.552631198382    0.001643381223
 O   -5.682701480511    0.918527884541    0.001986748327
 N   -3.370672770814    0.969161142250    0.002060284545
 H   -3.360856973691   -0.049123969616    0.002032980450
 C   -2.109418481581    1.605216629213    0.002077379381
 O   -1.075725553513    0.935952794797    0.001331713717
 C   -2.190897273341    3.065763690603    0.001577481934
 H   -1.267497135039    3.642823949469    0.001236805157
 H   -5.489074514823    3.405497111609    0.001826784192
CS    2.869550551973   -1.618413731752   -0.001514254217
