13

 N   -4.858629244759    3.122785662372    0.002225577888
 C   -3.684889661676    3.850157853882    0.001913098718
 H   -3.802606521739    4.935476312926    0.001797251159
 C   -4.904405217839    1.729573870505    0.001840523319
 O   -5.955993386395    1.095470556664    0.002183890423
 N   -3.643964676698    1.146103814373    0.002257426641
 H   -3.634148879575    0.127818702507    0.002230122546
 C   -2.382710387465    1.782159301336    0.002274521477
 O   -1.349017459397    1.112895466920    0.001528855813
 C   -2.464189179225    3.242706362726    0.001774624030
 H   -1.540789040923    3.819766621592    0.001433947253
 H   -5.762366420707    3.582439783732    0.002023926288
CS    3.099910914874   -1.767560403444   -0.001680427176
