13

 N   -5.086372499662    3.270237889141    0.002389862968
 C   -3.912632916579    3.997610080651    0.002077383798
 H   -4.030349776642    5.082928539695    0.001961536239
 C   -5.132148472742    1.877026097274    0.002004808399
 O   -6.183736641298    1.242922783433    0.002348175503
 N   -3.871707931601    1.293556041142    0.002421711721
 H   -3.861892134478    0.275270929276    0.002394407626
 C   -2.610453642368    1.929611528105    0.002438806557
 O   -1.576760714300    1.260347693689    0.001693140893
 C   -2.691932434128    3.390158589495    0.001938909110
 H   -1.768532295826    3.967218848361    0.001598232333
 H   -5.990109675610    3.729892010501    0.002188211368
CS    3.291877883959   -1.891849296520   -0.001818904642
