13

 N   -5.223018452604    3.358709225202    0.002488434016
 C   -4.049278869521    4.086081416712    0.002175954846
 H   -4.166995729584    5.171399875756    0.002060107287
 C   -5.268794425684    1.965497433335    0.002103379447
 O   -6.320382594240    1.331394119494    0.002446746551
 N   -4.008353884543    1.382027377203    0.002520282769
 H   -3.998538087420    0.363742265337    0.002492978674
 C   -2.747099595310    2.018082864166    0.002537377605
 O   -1.713406667242    1.348819029750    0.001791711941
 C   -2.828578387070    3.478629925556    0.002037480158
 H   -1.905178248768    4.055690184422    0.001696803381
 H   -6.126755628552    3.818363346562    0.002286782416
CS    3.407058065409   -1.966422632366   -0.001901991122
