13

 N   -5.587407660449    3.594632788032    0.002751290144
 C   -4.413668077366    4.322004979542    0.002438810974
 H   -4.531384937429    5.407323438586    0.002322963415
 C   -5.633183633529    2.201420996165    0.002366235575
 O   -6.684771802085    1.567317682324    0.002709602679
 N   -4.372743092388    1.617950940033    0.002783138897
 H   -4.362927295265    0.599665828167    0.002755834802
 C   -3.111488803155    2.254006426996    0.002800233733
 O   -2.077795875087    1.584742592580    0.002054568069
 C   -3.192967594915    3.714553488386    0.002300336286
 H   -2.269567456613    4.291613747252    0.001959659509
 H   -6.491144836397    4.054286909392    0.002549638544
CS    3.714205215945   -2.165284861289   -0.002123555068
