13

 N   -5.632956311430    3.624123233386    0.002784147160
 C   -4.459216728347    4.351495424896    0.002471667990
 H   -4.576933588410    5.436813883940    0.002355820431
 C   -5.678732284510    2.230911441519    0.002399092591
 O   -6.730320453066    1.596808127678    0.002742459695
 N   -4.418291743369    1.647441385387    0.002815995913
 H   -4.408475946246    0.629156273521    0.002788691818
 C   -3.157037454136    2.283496872350    0.002833090749
 O   -2.123344526068    1.614233037934    0.002087425085
 C   -3.238516245896    3.744043933740    0.002333193302
 H   -2.315116107594    4.321104192606    0.001992516525
 H   -6.536693487378    4.083777354746    0.002582495560
CS    3.752598609762   -2.190142639904   -0.002151250561
