13

 N   -5.724053613391    3.683104124094    0.002849861192
 C   -4.550314030308    4.410476315604    0.002537382022
 H   -4.668030890371    5.495794774648    0.002421534463
 C   -5.769829586471    2.289892332227    0.002464806623
 O   -6.821417755027    1.655789018386    0.002808173727
 N   -4.509389045330    1.706422276095    0.002881709945
 H   -4.499573248207    0.688137164229    0.002854405850
 C   -3.248134756097    2.342477763058    0.002898804781
 O   -2.214441828029    1.673213928642    0.002153139117
 C   -3.329613547857    3.803024824448    0.002398907334
 H   -2.406213409555    4.380085083314    0.002058230557
 H   -6.627790789339    4.142758245454    0.002648209592
CS    3.829385397396   -2.239858197135   -0.002206641548
