13

 N   -5.906248217314    3.801065905509    0.002981289256
 C   -4.732508634231    4.528438097019    0.002668810086
 H   -4.850225494294    5.613756556063    0.002552962527
 C   -5.952024190394    2.407854113642    0.002596234687
 O   -7.003612358950    1.773750799801    0.002939601791
 N   -4.691583649253    1.824384057510    0.003013138009
 H   -4.681767852130    0.806098945644    0.002985833914
 C   -3.430329360020    2.460439544473    0.003030232845
 O   -2.396636431952    1.791175710057    0.002284567181
 C   -3.511808151780    3.920986605863    0.002530335398
 H   -2.588408013478    4.498046864729    0.002189658621
 H   -6.809985393262    4.260720026869    0.002779637656
CS    3.982958972663   -2.339289311596   -0.002317423520
