13

 N   -6.088442821236    3.919027686924    0.003112717320
 C   -4.914703238153    4.646399878434    0.002800238150
 H   -5.032420098216    5.731718337478    0.002684390591
 C   -6.134218794316    2.525815895057    0.002727662751
 O   -7.185806962872    1.891712581216    0.003071029855
 N   -4.873778253175    1.942345838925    0.003144566073
 H   -4.863962456052    0.924060727059    0.003117261978
 C   -3.612523963942    2.578401325888    0.003161660909
 O   -2.578831035874    1.909137491472    0.002415995245
 C   -3.694002755702    4.038948387278    0.002661763462
 H   -2.770602617400    4.616008646144    0.002321086685
 H   -6.992179997184    4.378681808284    0.002911065720
CS    4.136532547931   -2.438720426058   -0.002428205493
