13

 N   -6.225088774178    4.007499022985    0.003211288368
 C   -5.051349191095    4.734871214495    0.002898809198
 H   -5.169066051158    5.820189673539    0.002782961639
 C   -6.270864747258    2.614287231118    0.002826233799
 O   -7.322452915814    1.980183917277    0.003169600903
 N   -5.010424206117    2.030817174986    0.003243137121
 H   -5.000608408994    1.012532063120    0.003215833026
 C   -3.749169916884    2.666872661949    0.003260231957
 O   -2.715476988816    1.997608827533    0.002514566293
 C   -3.830648708644    4.127419723339    0.002760334510
 H   -2.907248570342    4.704479982205    0.002419657733
 H   -7.128825950126    4.467153144345    0.003009636768
CS    4.251712729382   -2.513293761904   -0.002511291973
