13

 N   -6.316186076139    4.066479913693    0.003277002400
 C   -5.142446493056    4.793852105203    0.002964523230
 H   -5.260163353119    5.879170564247    0.002848675671
 C   -6.361962049219    2.673268121826    0.002891947831
 O   -7.413550217775    2.039164807985    0.003235314935
 N   -5.101521508078    2.089798065694    0.003308851153
 H   -5.091705710955    1.071512953828    0.003281547058
 C   -3.840267218845    2.725853552657    0.003325945989
 O   -2.806574290777    2.056589718241    0.002580280325
 C   -3.921746010605    4.186400614047    0.002826048542
 H   -2.998345872303    4.763460872913    0.002485371765
 H   -7.219923252087    4.526134035053    0.003075350800
CS    4.328499517015   -2.563009319134   -0.002566682960
