13

 N   -6.543929331043    4.213932140462    0.003441287480
 C   -5.370189747960    4.941304331972    0.003128808310
 H   -5.487906608023    6.026622791016    0.003012960751
 C   -6.589705304123    2.820720348595    0.003056232911
 O   -7.641293472679    2.186617034754    0.003399600015
 N   -5.329264762982    2.237250292463    0.003473136233
 H   -5.319448965859    1.218965180597    0.003445832138
 C   -4.068010473749    2.873305779426    0.003490231069
 O   -3.034317545681    2.204041945010    0.002744565405
 C   -4.149489265509    4.333852840816    0.002990333622
 H   -3.226089127207    4.910913099682    0.002649656845
 H   -7.447666506991    4.673586261822    0.003239635880
CS    4.520466486100   -2.687298212211   -0.002705160426
