13

 N   -6.817221236926    4.390874812584    0.003638429576
 C   -5.643481653843    5.118247004094    0.003325950406
 H   -5.761198513906    6.203565463138    0.003210102847
 C   -6.862997210006    2.997663020717    0.003253375007
 O   -7.914585378562    2.363559706876    0.003596742111
 N   -5.602556668865    2.414192964585    0.003670278329
 H   -5.592740871742    1.395907852719    0.003642974234
 C   -4.341302379632    3.050248451548    0.003687373165
 O   -3.307609451564    2.380984617132    0.002941707501
 C   -4.422781171392    4.510795512938    0.003187475718
 H   -3.499381033090    5.087855771804    0.002846798941
 H   -7.720958412874    4.850528933944    0.003436777976
CS    4.750826849001   -2.836444883903   -0.002871333385
