13

 N   -6.862769887907    4.420365257938    0.003671286592
 C   -5.689030304824    5.147737449448    0.003358807422
 H   -5.806747164887    6.233055908492    0.003242959863
 C   -6.908545860987    3.027153466071    0.003286232023
 O   -7.960134029543    2.393050152230    0.003629599127
 N   -5.648105319846    2.443683409939    0.003703135345
 H   -5.638289522723    1.425398298073    0.003675831250
 C   -4.386851030613    3.079738896902    0.003720230181
 O   -3.353158102545    2.410475062486    0.002974564517
 C   -4.468329822373    4.540285958292    0.003220332734
 H   -3.544929684071    5.117346217158    0.002879655957
 H   -7.766507063855    4.880019379298    0.003469634992
CS    4.789220242818   -2.861302662518   -0.002899028878
