13

 N   -6.908318538888    4.449855703292    0.003704143608
 C   -5.734578955805    5.177227894802    0.003391664438
 H   -5.852295815868    6.262546353846    0.003275816879
 C   -6.954094511968    3.056643911425    0.003319089039
 O   -8.005682680524    2.422540597584    0.003662456143
 N   -5.693653970827    2.473173855293    0.003735992361
 H   -5.683838173704    1.454888743427    0.003708688266
 C   -4.432399681594    3.109229342256    0.003753087197
 O   -3.398706753526    2.439965507840    0.003007421533
 C   -4.513878473354    4.569776403646    0.003253189750
 H   -3.590478335052    5.146836662512    0.002912512973
 H   -7.812055714836    4.909509824652    0.003502492008
CS    4.827613636635   -2.886160441134   -0.002926724372
