13

 N   -6.953867189868    4.479346148646    0.003737000624
 C   -5.780127606785    5.206718340156    0.003424521454
 H   -5.897844466848    6.292036799200    0.003308673895
 C   -6.999643162948    3.086134356779    0.003351946055
 O   -8.051231331504    2.452031042938    0.003695313159
 N   -5.739202621807    2.502664300647    0.003768849377
 H   -5.729386824684    1.484379188781    0.003741545282
 C   -4.477948332574    3.138719787610    0.003785944213
 O   -3.444255404506    2.469455953194    0.003040278549
 C   -4.559427124334    4.599266849000    0.003286046766
 H   -3.636026986032    5.176327107866    0.002945369989
 H   -7.857604365816    4.939000270006    0.003535349024
CS    4.866007030452   -2.911018219749   -0.002954419865
