13

 N   -1.048512269086    1.179117232538    0.000162540662
 C    0.125227313997    1.906489424048   -0.000149938508
 H    0.007510453934    2.991807883092   -0.000265786067
 C   -1.094288242166   -0.214094559329   -0.000222513907
 O   -2.145876410722   -0.848197873170    0.000120853197
 N    0.166152298975   -0.797564615461    0.000194389415
 H    0.175968096098   -1.815849727327    0.000167085320
 C    1.427406588208   -0.161509128498    0.000211484251
 O    2.461099516276   -0.830772962914   -0.000534181413
 C    1.345927796448    1.299037932892   -0.000288413196
 H    2.269327934750    1.876098191758   -0.000629089973
 H   -1.952249445034    1.638771353898   -0.000039110938
LI   -2.115445100059   -2.447908146790    0.001108681084
