13

 N   -1.048736458745    1.190902413420    0.000155263262
 C    0.125003124338    1.918274604930   -0.000157215908
 H    0.007286264275    3.003593063974   -0.000273063467
 C   -1.094512431825   -0.202309378447   -0.000229791307
 O   -2.146100600381   -0.836412692288    0.000113575797
 N    0.165928109316   -0.785779434579    0.000187112015
 H    0.175743906439   -1.804064546445    0.000159807920
 C    1.427182398549   -0.149723947616    0.000204206851
 O    2.460875326617   -0.818987782032   -0.000541458813
 C    1.345703606789    1.310823113774   -0.000295690596
 H    2.269103745091    1.887883372640   -0.000636367373
 H   -1.952473634693    1.650556534780   -0.000046388338
LI   -2.111865375885   -2.636086750111    0.001224882171
