13

 N   -1.048960648404    1.202687594302    0.000147985863
 C    0.124778934679    1.930059785812   -0.000164493307
 H    0.007062074616    3.015378244856   -0.000280340866
 C   -1.094736621484   -0.190524197565   -0.000237068706
 O   -2.146324790040   -0.824627511406    0.000106298398
 N    0.165703919657   -0.773994253697    0.000179834616
 H    0.175519716780   -1.792279365563    0.000152530521
 C    1.426958208890   -0.137938766734    0.000196929452
 O    2.460651136958   -0.807202601150   -0.000548736212
 C    1.345479417130    1.322608294656   -0.000302967995
 H    2.268879555432    1.899668553522   -0.000643644772
 H   -1.952697824352    1.662341715662   -0.000053665737
LI   -2.108285651712   -2.824265353432    0.001341083257
