13

 N   -1.049296932893    1.220365365625    0.000137069764
 C    0.124442650190    1.947737557135   -0.000175409406
 H    0.006725790127    3.033056016179   -0.000291256965
 C   -1.095072905973   -0.172846426242   -0.000247984805
 O   -2.146661074529   -0.806949740083    0.000095382299
 N    0.165367635168   -0.756316482374    0.000168918517
 H    0.175183432291   -1.774601594240    0.000141614422
 C    1.426621924401   -0.120260995411    0.000186013353
 O    2.460314852469   -0.789524829827   -0.000559652311
 C    1.345143132641    1.340286065979   -0.000313884094
 H    2.268543270943    1.917346324845   -0.000654560871
 H   -1.953034108841    1.680019486985   -0.000064581836
LI   -2.102916065451   -3.106533258413    0.001515384887
