13

 N   -1.049633217381    1.238043136948    0.000126153665
 C    0.124106365702    1.965415328458   -0.000186325505
 H    0.006389505639    3.050733787502   -0.000302173064
 C   -1.095409190461   -0.155168654919   -0.000258900904
 O   -2.146997359017   -0.789271968760    0.000084466200
 N    0.165031350680   -0.738638711051    0.000158002418
 H    0.174847147803   -1.756923822917    0.000130698323
 C    1.426285639913   -0.102583224088    0.000175097254
 O    2.459978567981   -0.771847058504   -0.000570568410
 C    1.344806848153    1.357963837302   -0.000324800193
 H    2.268206986455    1.935024096168   -0.000665476970
 H   -1.953370393329    1.697697258308   -0.000075497935
LI   -2.097546479190   -3.388801163394    0.001689686518
