13

 N   -1.049969501869    1.255720908271    0.000115237567
 C    0.123770081214    1.983093099781   -0.000197241603
 H    0.006053221151    3.068411558825   -0.000313089162
 C   -1.095745474949   -0.137490883596   -0.000269817002
 O   -2.147333643505   -0.771594197437    0.000073550102
 N    0.164695066192   -0.720960939728    0.000147086320
 H    0.174510863315   -1.739246051594    0.000119782225
 C    1.425949355425   -0.084905452765    0.000164181156
 O    2.459642283493   -0.754169287181   -0.000581484508
 C    1.344470563665    1.375641608625   -0.000335716291
 H    2.267870701967    1.952701867491   -0.000676393068
 H   -1.953706677817    1.715375029631   -0.000086414033
LI   -2.092176892929   -3.671069068375    0.001863988148
