13

 N   -1.050305786358    1.273398679593    0.000104321468
 C    0.123433796725    2.000770871103   -0.000208157702
 H    0.005716936662    3.086089330147   -0.000324005261
 C   -1.096081759438   -0.119813112274   -0.000280733101
 O   -2.147669927994   -0.753916426115    0.000062634003
 N    0.164358781703   -0.703283168406    0.000136170221
 H    0.174174578826   -1.721568280272    0.000108866126
 C    1.425613070936   -0.067227681443    0.000153265057
 O    2.459305999004   -0.736491515859   -0.000592400607
 C    1.344134279176    1.393319379947   -0.000346632390
 H    2.267534417478    1.970379638813   -0.000687309167
 H   -1.954042962306    1.733052800953   -0.000097330132
LI   -2.086807306668   -3.953336973356    0.002038289778
