13

 N   -1.050417881187    1.279291270034    0.000100682768
 C    0.123321701896    2.006663461544   -0.000211796402
 H    0.005604841833    3.091981920588   -0.000327643961
 C   -1.096193854267   -0.113920521833   -0.000284371801
 O   -2.147782022823   -0.748023835674    0.000058995303
 N    0.164246686874   -0.697390577965    0.000132531521
 H    0.174062483997   -1.715675689831    0.000105227426
 C    1.425500976107   -0.061335091002    0.000149626357
 O    2.459193904175   -0.730598925418   -0.000596039307
 C    1.344022184347    1.399211970388   -0.000350271090
 H    2.267422322649    1.976272229254   -0.000690947867
 H   -1.954155057135    1.738945391394   -0.000100968832
LI   -2.085017444581   -4.047426275016    0.002096390321
