13

 N   -1.050754165676    1.296969041357    0.000089766669
 C    0.122985417407    2.024341232867   -0.000222712501
 H    0.005268557344    3.109659691911   -0.000338560060
 C   -1.096530138756   -0.096242750510   -0.000295287900
 O   -2.148118307312   -0.730346064351    0.000048079204
 N    0.163910402385   -0.679712806642    0.000121615422
 H    0.173726199508   -1.697997918508    0.000094311327
 C    1.425164691618   -0.043657319679    0.000138710258
 O    2.458857619686   -0.712921154095   -0.000606955406
 C    1.343685899858    1.416889741711   -0.000361187189
 H    2.267086038160    1.993950000577   -0.000701863966
 H   -1.954491341624    1.756623162717   -0.000111884931
LI   -2.079647858320   -4.329694179997    0.002270691951
