13

 N   -1.051090450164    1.314646812680    0.000078850570
 C    0.122649132919    2.042019004190   -0.000233628600
 H    0.004932272856    3.127337463234   -0.000349476159
 C   -1.096866423244   -0.078564979187   -0.000306203999
 O   -2.148454591800   -0.712668293028    0.000037163105
 N    0.163574117897   -0.662035035319    0.000110699323
 H    0.173389915020   -1.680320147185    0.000083395228
 C    1.424828407130   -0.025979548356    0.000127794159
 O    2.458521335198   -0.695243382772   -0.000617871505
 C    1.343349615370    1.434567513034   -0.000372103288
 H    2.266749753672    2.011627771900   -0.000712780065
 H   -1.954827626112    1.774300934040   -0.000122801030
LI   -2.074278272059   -4.611962084978    0.002444993581
