13

 N   -1.051202544994    1.320539403121    0.000075211871
 C    0.122537038089    2.047911594631   -0.000237267299
 H    0.004820178026    3.133230053675   -0.000353114858
 C   -1.096978518074   -0.072672388746   -0.000309842698
 O   -2.148566686630   -0.706775702587    0.000033524406
 N    0.163462023067   -0.656142444878    0.000107060624
 H    0.173277820190   -1.674427556744    0.000079756529
 C    1.424716312300   -0.020086957915    0.000124155460
 O    2.458409240368   -0.689350792331   -0.000621510204
 C    1.343237520540    1.440460103475   -0.000375741987
 H    2.266637658842    2.017520362341   -0.000716418764
 H   -1.954939720942    1.780193524481   -0.000126439729
LI   -2.072488409972   -4.706051386639    0.002503094124
