13

 N   -1.051314639823    1.326431993562    0.000071573171
 C    0.122424943260    2.053804185072   -0.000240905999
 H    0.004708083197    3.139122644116   -0.000356753558
 C   -1.097090612903   -0.066779798305   -0.000313481398
 O   -2.148678781459   -0.700883112146    0.000029885706
 N    0.163349928238   -0.650249854437    0.000103421924
 H    0.173165725361   -1.668534966303    0.000076117829
 C    1.424604217471   -0.014194367474    0.000120516760
 O    2.458297145539   -0.683458201890   -0.000625148904
 C    1.343125425711    1.446352693916   -0.000379380687
 H    2.266525564013    2.023412952782   -0.000720057464
 H   -1.955051815771    1.786086114922   -0.000130078429
LI   -2.070698547885   -4.800140688299    0.002561194668
