13

 N   -1.051426734653    1.332324584003    0.000067934471
 C    0.122312848430    2.059696775513   -0.000244544699
 H    0.004595988367    3.145015234557   -0.000360392258
 C   -1.097202707733   -0.060887207864   -0.000317120098
 O   -2.148790876289   -0.694990521705    0.000026247006
 N    0.163237833408   -0.644357263996    0.000099783224
 H    0.173053630531   -1.662642375862    0.000072479129
 C    1.424492122641   -0.008301777033    0.000116878060
 O    2.458185050709   -0.677565611449   -0.000628787604
 C    1.343013330881    1.452245284357   -0.000383019387
 H    2.266413469183    2.029305543223   -0.000723696164
 H   -1.955163910601    1.791978705363   -0.000133717129
LI   -2.068908685798   -4.894229989959    0.002619295211
