13

 N   -1.051875113970    1.355894945767    0.000053379673
 C    0.121864469113    2.083267137277   -0.000259099497
 H    0.004147609050    3.168585596321   -0.000374947056
 C   -1.097651087050   -0.037316846100   -0.000331674896
 O   -2.149239255606   -0.671420159941    0.000011692208
 N    0.162789454091   -0.620786902232    0.000085228426
 H    0.172605251214   -1.639072014098    0.000057924331
 C    1.424043743324    0.015268584731    0.000102323262
 O    2.457736671392   -0.653995249685   -0.000643342402
 C    1.342564951564    1.475815646121   -0.000397574185
 H    2.265965089866    2.052875904987   -0.000738250962
 H   -1.955612289918    1.815549067127   -0.000148271927
LI   -2.061749237450   -5.270587196601    0.002851697384
