13

 N   -1.051987208800    1.361787536208    0.000049740973
 C    0.121752374283    2.089159727718   -0.000262738197
 H    0.004035514220    3.174478186762   -0.000378585756
 C   -1.097763181880   -0.031424255659   -0.000335313596
 O   -2.149351350436   -0.665527569500    0.000008053508
 N    0.162677359261   -0.614894311791    0.000081589726
 H    0.172493156384   -1.633179423657    0.000054285631
 C    1.423931648494    0.021161175172    0.000098684562
 O    2.457624576562   -0.648102659244   -0.000646981102
 C    1.342452856734    1.481708236562   -0.000401212885
 H    2.265852995036    2.058768495428   -0.000741889662
 H   -1.955724384748    1.821441657568   -0.000151910627
LI   -2.059959375363   -5.364676498261    0.002909797928
