13

 N   -1.052547682947    1.391250488412    0.000031547475
 C    0.121191900136    2.118622679922   -0.000280931695
 H    0.003475040073    3.203941138966   -0.000396779254
 C   -1.098323656027   -0.001961303455   -0.000353507094
 O   -2.149911824583   -0.636064617296   -0.000010139990
 N    0.162116885114   -0.585431359587    0.000063396228
 H    0.171932682237   -1.603716471453    0.000036092133
 C    1.423371174347    0.050624127376    0.000080491064
 O    2.457064102415   -0.618639707040   -0.000665174600
 C    1.341892382587    1.511171188766   -0.000419406383
 H    2.265292520889    2.088231447632   -0.000760083160
 H   -1.956284858895    1.850904609772   -0.000170104125
LI   -2.051010064928   -5.835123006563    0.003200300644
