13

 N   -1.052659777777    1.397143078853    0.000027908776
 C    0.121079805306    2.124515270363   -0.000284570394
 H    0.003362945243    3.209833729407   -0.000400417953
 C   -1.098435750857    0.003931286986   -0.000357145793
 O   -2.150023919413   -0.630172026855   -0.000013778689
 N    0.162004790284   -0.579538769146    0.000059757529
 H    0.171820587407   -1.597823881012    0.000032453434
 C    1.423259079517    0.056516717817    0.000076852365
 O    2.456952007585   -0.612747116599   -0.000668813299
 C    1.341780287757    1.517063779207   -0.000423045082
 H    2.265180426059    2.094124038073   -0.000763721859
 H   -1.956396953725    1.856797200213   -0.000173742824
LI   -2.049220202841   -5.929212308223    0.003258401188
