13

 N   -1.053108157095    1.420713440617    0.000013353977
 C    0.120631425988    2.148085632127   -0.000299125193
 H    0.002914565925    3.233404091171   -0.000414972752
 C   -1.098884130175    0.027501648750   -0.000371700592
 O   -2.150472298731   -0.606601665091   -0.000028333488
 N    0.161556410966   -0.555968407382    0.000045202730
 H    0.171372208089   -1.574253519248    0.000017898635
 C    1.422810700199    0.080087079581    0.000062297566
 O    2.456503628267   -0.589176754835   -0.000683368098
 C    1.341331908439    1.540634140971   -0.000437599881
 H    2.264732046741    2.117694399837   -0.000778276658
 H   -1.956845333043    1.880367561977   -0.000188297623
LI   -2.042060754494   -6.305569514864    0.003490803361
