13

 N   -1.053332346754    1.432498621499    0.000006076578
 C    0.120407236329    2.159870813009   -0.000306402592
 H    0.002690376266    3.245189272053   -0.000422250151
 C   -1.099108319834    0.039286829632   -0.000378977991
 O   -2.150696488390   -0.594816484209   -0.000035610887
 N    0.161332221307   -0.544183226500    0.000037925331
 H    0.171148018430   -1.562468338366    0.000010621236
 C    1.422586510540    0.091872260463    0.000055020167
 O    2.456279438608   -0.577391573953   -0.000690645497
 C    1.341107718780    1.552419321853   -0.000444877280
 H    2.264507857082    2.129479580719   -0.000785554057
 H   -1.957069522702    1.892152742859   -0.000195575022
LI   -2.038481030320   -6.493748118185    0.003607004448
