13

 N   -1.053444441583    1.438391211940    0.000002437878
 C    0.120295141500    2.165763403450   -0.000310041292
 H    0.002578281437    3.251081862494   -0.000425888851
 C   -1.099220414663    0.045179420073   -0.000382616691
 O   -2.150808583219   -0.588923893768   -0.000039249587
 N    0.161220126478   -0.538290636059    0.000034286631
 H    0.171035923601   -1.556575747925    0.000006982536
 C    1.422474415711    0.097764850904    0.000051381467
 O    2.456167343779   -0.571498983512   -0.000694284197
 C    1.340995623951    1.558311912294   -0.000448515980
 H    2.264395762253    2.135372171160   -0.000789192757
 H   -1.957181617531    1.898045333300   -0.000199213722
LI   -2.036691168233   -6.587837419846    0.003665104991
