13

 N   -1.053668631242    1.450176392822   -0.000004839521
 C    0.120070951841    2.177548584332   -0.000317318691
 H    0.002354091778    3.262867043376   -0.000433166250
 C   -1.099444604322    0.056964600955   -0.000389894090
 O   -2.151032772878   -0.577138712886   -0.000046526986
 N    0.160995936819   -0.526505455177    0.000027009232
 H    0.170811733942   -1.544790567043   -0.000000294863
 C    1.422250226052    0.109550031786    0.000044104068
 O    2.455943154120   -0.559713802630   -0.000701561596
 C    1.340771434292    1.570097093176   -0.000455793379
 H    2.264171572594    2.147157352042   -0.000796470156
 H   -1.957405807190    1.909830514182   -0.000206491121
LI   -2.033111444059   -6.776016023166    0.003781306078
