13

 N   -1.054229105389    1.479639345026   -0.000023033019
 C    0.119510477694    2.207011536536   -0.000335512189
 H    0.001793617631    3.292329995580   -0.000451359748
 C   -1.100005078469    0.086427553159   -0.000408087588
 O   -2.151593247025   -0.547675760682   -0.000064720484
 N    0.160435462672   -0.497042502973    0.000008815734
 H    0.170251259795   -1.515327614839   -0.000018488361
 C    1.421689751905    0.139012983990    0.000025910570
 O    2.455382679973   -0.530250850426   -0.000719755094
 C    1.340210960145    1.599560045380   -0.000473986877
 H    2.263611098447    2.176620304246   -0.000814663654
 H   -1.957966281337    1.939293466386   -0.000224684619
LI   -2.024162133624   -7.246462531468    0.004071808795
