13

 N   -1.054789579537    1.509102297231   -0.000041226517
 C    0.118950003546    2.236474488741   -0.000353705687
 H    0.001233143483    3.321792947785   -0.000469553246
 C   -1.100565552617    0.115890505364   -0.000426281086
 O   -2.152153721173   -0.518212808477   -0.000082913982
 N    0.159874988524   -0.467579550768   -0.000009377764
 H    0.169690785647   -1.485864662634   -0.000036681859
 C    1.421129277757    0.168475936195    0.000007717072
 O    2.454822205825   -0.500787898221   -0.000737948592
 C    1.339650485997    1.629022997585   -0.000492180375
 H    2.263050624299    2.206083256451   -0.000832857152
 H   -1.958526755485    1.968756418591   -0.000242878117
LI   -2.015212823189   -7.716909039770    0.004362311511
