13

 N   -1.055350053684    1.538565249436   -0.000059420015
 C    0.118389529399    2.265937440946   -0.000371899185
 H    0.000672669336    3.351255899990   -0.000487746744
 C   -1.101126026764    0.145353457569   -0.000444474584
 O   -2.152714195320   -0.488749856272   -0.000101107480
 N    0.159314514377   -0.438116598563   -0.000027571262
 H    0.169130311500   -1.456401710429   -0.000054875357
 C    1.420568803610    0.197938888400   -0.000010476426
 O    2.454261731678   -0.471324946016   -0.000756142090
 C    1.339090011850    1.658485949790   -0.000510373873
 H    2.262490150152    2.235546208656   -0.000851050650
 H   -1.959087229632    1.998219370796   -0.000261071615
LI   -2.006263512754   -8.187355548071    0.004652814228
