13

 N   -1.055574243343    1.550350430318   -0.000066697415
 C    0.118165339740    2.277722621828   -0.000379176585
 H    0.000448479677    3.363041080872   -0.000495024144
 C   -1.101350216423    0.157138638451   -0.000451751984
 O   -2.152938384979   -0.476964675390   -0.000108384880
 N    0.159090324718   -0.426331417681   -0.000034848662
 H    0.168906121841   -1.444616529547   -0.000062152757
 C    1.420344613951    0.209724069282   -0.000017753826
 O    2.454037542019   -0.459539765134   -0.000763419490
 C    1.338865822191    1.670271130672   -0.000517651273
 H    2.262265960493    2.247331389538   -0.000858328050
 H   -1.959311419291    2.010004551678   -0.000268349015
LI   -2.002683788580   -8.375534151392    0.004769015315
