13

 N   -1.056134717490    1.579813382523   -0.000084890913
 C    0.117604865593    2.307185574033   -0.000397370083
 H   -0.000111994470    3.392504033077   -0.000513217642
 C   -1.101910690570    0.186601590656   -0.000469945482
 O   -2.153498859126   -0.447501723185   -0.000126578378
 N    0.158529850571   -0.396868465476   -0.000053042160
 H    0.168345647694   -1.415153577342   -0.000080346255
 C    1.419784139804    0.239187021487   -0.000035947324
 O    2.453477067872   -0.430076812929   -0.000781612988
 C    1.338305348044    1.699734082877   -0.000535844771
 H    2.261705486346    2.276794341743   -0.000876521548
 H   -1.959871893438    2.039467503883   -0.000286542513
LI   -1.993734478145   -8.845980659694    0.005059518031
