13

 N   -1.056471001979    1.597491153845   -0.000095807012
 C    0.117268581104    2.324863345355   -0.000408286182
 H   -0.000448278959    3.410181804399   -0.000524133741
 C   -1.102246975059    0.204279361978   -0.000480861581
 O   -2.153835143615   -0.429823951863   -0.000137494477
 N    0.158193566082   -0.379190694154   -0.000063958259
 H    0.168009363205   -1.397475806020   -0.000091262354
 C    1.419447855315    0.256864792809   -0.000046863423
 O    2.453140783383   -0.412399041607   -0.000792529087
 C    1.337969063555    1.717411854199   -0.000546760870
 H    2.261369201857    2.294472113065   -0.000887437647
 H   -1.960208177927    2.057145275205   -0.000297458612
LI   -1.988364891884   -9.128248564675    0.005233819662
