13

 N   -1.056807286467    1.615168925168   -0.000106723110
 C    0.116932296616    2.342541116678   -0.000419202280
 H   -0.000784563447    3.427859575722   -0.000535049839
 C   -1.102583259547    0.221957133301   -0.000491777679
 O   -2.154171428103   -0.412146180540   -0.000148410575
 N    0.157857281594   -0.361512922831   -0.000074874357
 H    0.167673078717   -1.379798034697   -0.000102178452
 C    1.419111570827    0.274542564132   -0.000057779521
 O    2.452804498895   -0.394721270284   -0.000803445185
 C    1.337632779067    1.735089625522   -0.000557676968
 H    2.261032917369    2.312149884388   -0.000898353745
 H   -1.960544462415    2.074823046528   -0.000308374710
LI   -1.982995305623   -9.410516469656    0.005408121292
