13

 N   -1.056919381296    1.621061515609   -0.000110361810
 C    0.116820201787    2.348433707119   -0.000422840980
 H   -0.000896658276    3.433752166163   -0.000538688539
 C   -1.102695354376    0.227849723742   -0.000495416379
 O   -2.154283522932   -0.406253590099   -0.000152049275
 N    0.157745186765   -0.355620332390   -0.000078513057
 H    0.167560983888   -1.373905444256   -0.000105817152
 C    1.418999475998    0.280435154573   -0.000061418221
 O    2.452692404066   -0.388828679843   -0.000807083885
 C    1.337520684238    1.740982215963   -0.000561315668
 H    2.260920822540    2.318042474829   -0.000901992445
 H   -1.960656557244    2.080715636969   -0.000312013410
LI   -1.981205443536   -9.504605771316    0.005466221835
