13

 N   -1.057255665785    1.638739286932   -0.000121277909
 C    0.116483917298    2.366111478442   -0.000433757079
 H   -0.001232942765    3.451429937486   -0.000549604638
 C   -1.103031638865    0.245527495065   -0.000506332478
 O   -2.154619807421   -0.388575818776   -0.000162965374
 N    0.157408902276   -0.337942561067   -0.000089429156
 H    0.167224699399   -1.356227672933   -0.000116733251
 C    1.418663191509    0.298112925896   -0.000072334320
 O    2.452356119577   -0.371150908520   -0.000817999984
 C    1.337184399749    1.758659987286   -0.000572231767
 H    2.260584538051    2.335720246152   -0.000912908544
 H   -1.960992841733    2.098393408292   -0.000322929509
LI   -1.975835857276   -9.786873676297    0.005640523465
