13

 N   -1.057367760614    1.644631877373   -0.000124916608
 C    0.116371822469    2.372004068883   -0.000437395778
 H   -0.001345037594    3.457322527927   -0.000553243337
 C   -1.103143733694    0.251420085506   -0.000509971177
 O   -2.154731902250   -0.382683228335   -0.000166604073
 N    0.157296807447   -0.332049970626   -0.000093067855
 H    0.167112604570   -1.350335082492   -0.000120371950
 C    1.418551096680    0.304005516337   -0.000075973019
 O    2.452244024748   -0.365258318079   -0.000821638683
 C    1.337072304920    1.764552577727   -0.000575870466
 H    2.260472443222    2.341612836593   -0.000916547243
 H   -1.961104936562    2.104285998733   -0.000326568208
LI   -1.974045995189   -9.880962977958    0.005698624008
