13

 N   -1.057704045103    1.662309648696   -0.000135832707
 C    0.116035537980    2.389681840206   -0.000448311877
 H   -0.001681322083    3.475000299250   -0.000564159436
 C   -1.103480018183    0.269097856829   -0.000520887276
 O   -2.155068186739   -0.365005457012   -0.000177520172
 N    0.156960522958   -0.314372199303   -0.000103983954
 H    0.166776320081   -1.332657311169   -0.000131288049
 C    1.418214812191    0.321683287660   -0.000086889118
 O    2.451907740259   -0.347580546756   -0.000832554782
 C    1.336736020431    1.782230349050   -0.000586786565
 H    2.260136158733    2.359290607916   -0.000927463342
 H   -1.961441221051    2.121963770056   -0.000337484307
LI   -1.968676408928  -10.163230882939    0.005872925638
