13

 N   -1.057816139932    1.668202239137   -0.000139471407
 C    0.115923443151    2.395574430647   -0.000451950577
 H   -0.001793416912    3.480892889691   -0.000567798136
 C   -1.103592113012    0.274990447270   -0.000524525976
 O   -2.155180281568   -0.359112866571   -0.000181158872
 N    0.156848428129   -0.308479608862   -0.000107622654
 H    0.166664225252   -1.326764720728   -0.000134926749
 C    1.418102717362    0.327575878101   -0.000090527818
 O    2.451795645430   -0.341687956315   -0.000836193482
 C    1.336623925602    1.788122939491   -0.000590425265
 H    2.260024063904    2.365183198357   -0.000931102042
 H   -1.961553315880    2.127856360497   -0.000341123007
LI   -1.966886546841  -10.257320184599    0.005931026182
