28

 P    1.630536896936   -1.021745735778    0.220843372592
 O    1.239726896936    0.472364264222    0.370273372592
 O    1.505836896936   -1.616125735778   -1.186986627408
 O    3.070386896936   -1.302595735778    0.950243372592
 O    0.697396896936   -1.885035735778    1.307293372592
 C    4.145326896936   -0.537865735778    0.362313372592
 H    3.946806896936    0.538464264222    0.473553372592
 H    4.257506896936   -0.794005735778   -0.702256627408
 H    5.054726896936   -0.812775735778    0.907763372592
 C   -0.329333103064   -2.721585735778    0.719973372592
 H    0.108316896936   -3.419705735778   -0.003686627408
 H   -1.098173103064   -2.112005735778    0.215213372592
 H   -0.774133103064   -3.274455735778    1.557073372592
 K   -0.852003103064    0.199224264222    1.781973372592
 K   -0.015923103064    0.344644264222   -1.899526627408
 P   -1.359998240667    0.852216723323   -0.184200674478
 O   -2.799846410709    1.133070157268   -0.913596487442
 O   -0.426858450511    1.715500176245   -1.270652895949
 O   -0.969187506427   -0.641894997547   -0.333628461923
 O   -1.235289781882    1.446604603562    1.223625929097
 C   -3.874790683723    0.368343873616   -0.325666113072
 H   -3.676273207462   -0.707993757717   -0.436905188469
 H   -3.986966523446    0.624486763443    0.738911679799
 H   -4.784200939571    0.643253287165   -0.871118265786
 C    0.599875657720    2.552049644311   -0.683339886239
 H    0.162230174353    3.250174411785    0.040321358287
 H    1.368719011994    1.942474587928   -0.178572903143
 H    1.044671260239    3.104921106972   -1.520437779053
