28

 P    1.855165686538   -1.162505131531    0.251267544135
 O    1.464355686538    0.331604868469    0.400697544135
 O    1.730465686538   -1.756885131531   -1.156562455865
 O    3.295015686538   -1.443355131531    0.980667544135
 O    0.922025686538   -2.025795131531    1.337717544135
 C    4.369955686538   -0.678625131531    0.392737544135
 H    4.171435686538    0.397704868469    0.503977544135
 H    4.482135686538   -0.934765131531   -0.671832455865
 H    5.279355686538   -0.953535131531    0.938187544135
 C   -0.104704313462   -2.862345131531    0.750397544135
 H    0.332945686538   -3.560465131531    0.026737544135
 H   -0.873544313462   -2.252765131531    0.245637544135
 H   -0.549504313462   -3.415215131531    1.587497544135
 K   -0.627374313462    0.058464868469    1.812397544135
 K    0.208705686538    0.203884868469   -1.869102455865
 P   -1.724664538631    1.080727983362   -0.233591805617
 O   -3.164512708672    1.361581417306   -0.962987618581
 O   -0.791524748475    1.944011436284   -1.320044027088
 O   -1.333853804391   -0.413383737509   -0.383019593062
 O   -1.599956079845    1.675115863601    1.174234797958
 C   -4.239456981686    0.596855133655   -0.375057244211
 H   -4.040939505425   -0.479482497678   -0.486296319608
 H   -4.351632821410    0.852998023481    0.689520548660
 H   -5.148867237535    0.871764547203   -0.920509396925
 C    0.235209359756    2.780560904349   -0.732731017378
 H   -0.202436123610    3.478685671823   -0.009069772852
 H    1.004052714031    2.170985847966   -0.227964034282
 H    0.680004962275    3.333432367011   -1.569828910192
