28

 P    1.887255513624   -1.182613616639    0.255613854355
 O    1.496445513624    0.311496383361    0.405043854355
 O    1.762555513624   -1.776993616639   -1.152216145645
 O    3.327105513624   -1.463463616639    0.985013854355
 O    0.954115513624   -2.045903616639    1.342063854355
 C    4.402045513624   -0.698733616639    0.397083854355
 H    4.203525513624    0.377596383361    0.508323854355
 H    4.514225513624   -0.954873616639   -0.667486145645
 H    5.311445513624   -0.973643616639    0.942533854355
 C   -0.072614486376   -2.882453616639    0.754743854355
 H    0.365035513624   -3.580573616639    0.031083854355
 H   -0.841454486376   -2.272873616639    0.249983854355
 H   -0.517414486376   -3.435323616639    1.591843854355
 K   -0.595284486376    0.038356383361    1.816743854355
 K    0.240795513624    0.183776383361   -1.864756145645
 P   -1.776759724054    1.113372449082   -0.240647681494
 O   -3.216607894096    1.394225883026   -0.970043494458
 O   -0.843619933898    1.976655902004   -1.327099902965
 O   -1.385948989814   -0.380739271789   -0.390075468939
 O   -1.652051265269    1.707760329321    1.167178922081
 C   -4.291552167110    0.629499599375   -0.382113120088
 H   -4.093034690849   -0.446838031959   -0.493352195485
 H   -4.403728006833    0.885642489201    0.682464672783
 H   -5.200962422958    0.904409012923   -0.927565272802
 C    0.183114174333    2.813205370069   -0.739786893255
 H   -0.254531309034    3.511330137543   -0.016125648729
 H    0.951957528607    2.203630313686   -0.235019910159
 H    0.627909776852    3.366076832731   -1.576884786069
