28

 P    1.919345340710   -1.202722101746    0.259960164575
 O    1.528535340710    0.291387898254    0.409390164575
 O    1.794645340710   -1.797102101746   -1.147869835425
 O    3.359195340710   -1.483572101746    0.989360164575
 O    0.986205340710   -2.066012101746    1.346410164575
 C    4.434135340710   -0.718842101746    0.401430164575
 H    4.235615340710    0.357487898254    0.512670164575
 H    4.546315340710   -0.974982101746   -0.663139835425
 H    5.343535340710   -0.993752101746    0.946880164575
 C   -0.040524659290   -2.902562101746    0.759090164575
 H    0.397125340710   -3.600682101746    0.035430164575
 H   -0.809364659290   -2.292982101746    0.254330164575
 H   -0.485324659290   -3.455432101746    1.596190164575
 K   -0.563194659290    0.018247898254    1.821090164575
 K    0.272885340710    0.163667898254   -1.860409835425
 P   -1.828854909478    1.146016914801   -0.247703557371
 O   -3.268703079519    1.426870348746   -0.977099370335
 O   -0.895715119322    2.009300367723   -1.334155778842
 O   -1.438044175238   -0.348094806069   -0.397131344816
 O   -1.704146450692    1.740404795041    1.160123046204
 C   -4.343647352533    0.662144065094   -0.389168995965
 H   -4.145129876272   -0.414193566239   -0.500408071362
 H   -4.455823192257    0.918286954921    0.675408796906
 H   -5.253057608382    0.937053478643   -0.934621148679
 C    0.131018988909    2.845849835789   -0.746842769132
 H   -0.306626494457    3.543974603263   -0.023181524606
 H    0.899862343184    2.236274779406   -0.242075786036
 H    0.575814591428    3.398721298451   -1.583940661946
