28

 P    2.240243611570   -1.403806952822    0.303423266778
 O    1.849433611570    0.090303047178    0.452853266778
 O    2.115543611570   -1.998186952822   -1.104406733222
 O    3.680093611570   -1.684656952822    1.032823266778
 O    1.307103611570   -2.267096952822    1.389873266778
 C    4.755033611570   -0.919926952822    0.444893266778
 H    4.556513611570    0.156403047178    0.556133266778
 H    4.867213611570   -1.176066952822   -0.619676733222
 H    5.664433611570   -1.194836952822    0.990343266778
 C    0.280373611570   -3.103646952822    0.802553266778
 H    0.718023611570   -3.801766952822    0.078893266778
 H   -0.488466388430   -2.494066952822    0.297793266778
 H   -0.164426388430   -3.656516952822    1.639653266778
 K   -0.242296388430   -0.182836952822    1.864553266778
 K    0.593783611570   -0.037416952822   -1.816946733222
 P   -2.349806763711    1.472461571999   -0.318262316141
 O   -3.789654933753    1.753315005944   -1.047658129105
 O   -1.416666973555    2.335745024921   -1.404714537612
 O   -1.958996029472   -0.021650148871   -0.467690103586
 O   -2.225098304926    2.066849452238    1.089564287434
 C   -4.864599206767    0.988588722292   -0.459727754735
 H   -4.666081730506   -0.087748909041   -0.570966830132
 H   -4.976775046490    1.244731612119    0.604850038135
 H   -5.774009462615    1.263498135841   -1.005179907449
 C   -0.389932865324    3.172294492987   -0.817401527902
 H   -0.827578348691    3.870419260461   -0.093740283376
 H    0.378910488950    2.562719436604   -0.312634544806
 H    0.054862737195    3.725165955648   -1.654499420716
