28

 P    2.304423265742   -1.444023923038    0.312115887219
 O    1.913613265742    0.050086076962    0.461545887219
 O    2.179723265742   -2.038403923038   -1.095714112781
 O    3.744273265742   -1.724873923038    1.041515887219
 O    1.371283265742   -2.307313923038    1.398565887219
 C    4.819213265742   -0.960143923038    0.453585887219
 H    4.620693265742    0.116186076962    0.564825887219
 H    4.931393265742   -1.216283923038   -0.610984112781
 H    5.728613265742   -1.235053923038    0.999035887219
 C    0.344553265742   -3.143863923038    0.811245887219
 H    0.782203265742   -3.841983923038    0.087585887219
 H   -0.424286734258   -2.534283923038    0.306485887219
 H   -0.100246734258   -3.696733923038    1.648345887219
 K   -0.178116734258   -0.223053923038    1.873245887219
 K    0.657963265742   -0.077633923038   -1.808254112781
 P   -2.453997134558    1.537750503439   -0.332374067895
 O   -3.893845304600    1.818603937383   -1.061769880859
 O   -1.520857344402    2.401033956361   -1.418826289366
 O   -2.063186400318    0.043638782569   -0.481801855340
 O   -2.329288675773    2.132138383678    1.075452535680
 C   -4.968789577614    1.053877653732   -0.473839506489
 H   -4.770272101352   -0.022459977601   -0.585078581886
 H   -5.080965417337    1.310020543559    0.590738286381
 H   -5.878199833462    1.328787067280   -1.019291659203
 C   -0.494123236171    3.237583424426   -0.831513279656
 H   -0.931768719538    3.935708191900   -0.107852035130
 H    0.274720118103    2.628008368043   -0.326746296560
 H   -0.049327633652    3.790454887088   -1.668611172470
