28

 P    2.336513092828   -1.464132408145    0.316462197439
 O    1.945703092828    0.029977591855    0.465892197439
 O    2.211813092828   -2.058512408145   -1.091367802561
 O    3.776363092828   -1.744982408145    1.045862197439
 O    1.403373092828   -2.327422408145    1.402912197439
 C    4.851303092828   -0.980252408145    0.457932197439
 H    4.652783092828    0.096077591855    0.569172197439
 H    4.963483092828   -1.236392408145   -0.606637802561
 H    5.760703092828   -1.255162408145    1.003382197439
 C    0.376643092828   -3.163972408145    0.815592197439
 H    0.814293092828   -3.862092408145    0.091932197439
 H   -0.392196907172   -2.554392408145    0.310832197439
 H   -0.068156907172   -3.716842408145    1.652692197439
 K   -0.146026907172   -0.243162408145    1.877592197439
 K    0.690053092828   -0.097742408145   -1.803907802561
 P   -2.506092319981    1.570394969159   -0.339429943772
 O   -3.945940490023    1.851248403103   -1.068825756736
 O   -1.572952529825    2.433678422081   -1.425882165243
 O   -2.115281585742    0.076283248288   -0.488857731217
 O   -2.381383861196    2.164782849398    1.068396659803
 C   -5.020884763037    1.086522119452   -0.480895382366
 H   -4.822367286776    0.010184488119   -0.592134457763
 H   -5.133060602761    1.342665009278    0.583682410504
 H   -5.930295018885    1.361431533000   -1.026347535080
 C   -0.546218421594    3.270227890146   -0.838569155533
 H   -0.983863904961    3.968352657620   -0.114907911007
 H    0.222624932680    2.660652833763   -0.333802172437
 H   -0.101422819075    3.823099352808   -1.675667048347
