28

 P    2.368602919914   -1.484240893253    0.320808507659
 O    1.977792919914    0.009869106747    0.470238507659
 O    2.243902919914   -2.078620893253   -1.087021492341
 O    3.808452919914   -1.765090893253    1.050208507659
 O    1.435462919914   -2.347530893253    1.407258507659
 C    4.883392919914   -1.000360893253    0.462278507659
 H    4.684872919914    0.075969106747    0.573518507659
 H    4.995572919914   -1.256500893253   -0.602291492341
 H    5.792792919914   -1.275270893253    1.007728507659
 C    0.408732919914   -3.184080893253    0.819938507659
 H    0.846382919914   -3.882200893253    0.096278507659
 H   -0.360107080086   -2.574500893253    0.315178507659
 H   -0.036067080086   -3.736950893253    1.657038507659
 K   -0.113937080086   -0.263270893253    1.881938507659
 K    0.722142919914   -0.117850893253   -1.799561492341
 P   -2.558187505405    1.603039434878   -0.346485819649
 O   -3.998035675446    1.883892868823   -1.075881632613
 O   -1.625047715249    2.466322887800   -1.432938041120
 O   -2.167376771165    0.108927714008   -0.495913607094
 O   -2.433479046619    2.197427315118    1.061340783926
 C   -5.072979948460    1.119166585171   -0.487951258243
 H   -4.874462472199    0.042828953838   -0.599190333640
 H   -5.185155788184    1.375309474998    0.576626534627
 H   -5.982390204309    1.394075998720   -1.033403410957
 C   -0.598313607018    3.302872355866   -0.845625031410
 H   -1.035959090384    4.000997123340   -0.121963786884
 H    0.170529747257    2.693297299483   -0.340858048314
 H   -0.153518004499    3.855743818528   -1.682722924224
