28

 P    2.400692747000   -1.504349378360    0.325154817879
 O    2.009882747000   -0.010239378360    0.474584817879
 O    2.275992747000   -2.098729378360   -1.082675182121
 O    3.840542747000   -1.785199378360    1.054554817879
 O    1.467552747000   -2.367639378360    1.411604817879
 C    4.915482747000   -1.020469378360    0.466624817879
 H    4.716962747000    0.055860621640    0.577864817879
 H    5.027662747000   -1.276609378360   -0.597945182121
 H    5.824882747000   -1.295379378360    1.012074817879
 C    0.440822747000   -3.204189378360    0.824284817879
 H    0.878472747000   -3.902309378360    0.100624817879
 H   -0.328017253000   -2.594609378360    0.319524817879
 H   -0.003977253000   -3.757059378360    1.661384817879
 K   -0.081847253000   -0.283379378360    1.886284817879
 K    0.754232747000   -0.137959378360   -1.795215182121
 P   -2.610282690828    1.635683900598   -0.353541695526
 O   -4.050130860870    1.916537334543   -1.082937508490
 O   -1.677142900672    2.498967353520   -1.439993916997
 O   -2.219471956588    0.141572179728   -0.502969482971
 O   -2.485574232043    2.230071780837    1.054284908049
 C   -5.125075133884    1.151811050891   -0.495007134120
 H   -4.926557657623    0.075473419558   -0.606246209517
 H   -5.237250973607    1.407953940718    0.569570658750
 H   -6.034485389732    1.426720464440   -1.040459286834
 C   -0.650408792441    3.335516821586   -0.852680907287
 H   -1.088054275808    4.033641589060   -0.129019662761
 H    0.118434561833    2.725941765203   -0.347913924191
 H   -0.205613189922    3.888388284247   -1.689778800101
