28

 P    2.464872401172   -1.544566348576    0.333847438320
 O    2.074062401172   -0.050456348576    0.483277438320
 O    2.340172401172   -2.138946348576   -1.073982561680
 O    3.904722401172   -1.825416348576    1.063247438320
 O    1.531732401172   -2.407856348576    1.420297438320
 C    4.979662401172   -1.060686348576    0.475317438320
 H    4.781142401172    0.015643651424    0.586557438320
 H    5.091842401172   -1.316826348576   -0.589252561680
 H    5.889062401172   -1.335596348576    1.020767438320
 C    0.505002401172   -3.244406348576    0.832977438320
 H    0.942652401172   -3.942526348576    0.109317438320
 H   -0.263837598828   -2.634826348576    0.328217438320
 H    0.060202401172   -3.797276348576    1.670077438320
 K   -0.017667598828   -0.323596348576    1.894977438320
 K    0.818412401172   -0.178176348576   -1.786522561680
 P   -2.714473061675    1.700972832038   -0.367653447280
 O   -4.154321231716    1.981826265982   -1.097049260244
 O   -1.781333271519    2.564256284960   -1.454105668751
 O   -2.323662327435    0.206861111167   -0.517081234725
 O   -2.589764602890    2.295360712277    1.040173156295
 C   -5.229265504731    1.217099982331   -0.509118885874
 H   -5.030748028469    0.140762350998   -0.620357961271
 H   -5.341441344454    1.473242872157    0.555458906996
 H   -6.138675760579    1.492009395879   -1.054571038588
 C   -0.754599163288    3.400805753025   -0.866792659041
 H   -1.192244646655    4.098930520499   -0.143131414515
 H    0.014244190986    2.791230696642   -0.362025675945
 H   -0.309803560769    3.953677215687   -1.703890551855
