28

 P    2.496962228258   -1.564674833683    0.338193748540
 O    2.106152228258   -0.070564833683    0.487623748540
 O    2.372262228258   -2.159054833683   -1.069636251460
 O    3.936812228258   -1.845524833683    1.067593748540
 O    1.563822228258   -2.427964833683    1.424643748540
 C    5.011752228258   -1.080794833683    0.479663748540
 H    4.813232228258   -0.004464833683    0.590903748540
 H    5.123932228258   -1.336934833683   -0.584906251460
 H    5.921152228258   -1.355704833683    1.025113748540
 C    0.537092228258   -3.264514833683    0.837323748540
 H    0.974742228258   -3.962634833683    0.113663748540
 H   -0.231747771742   -2.654934833683    0.332563748540
 H    0.092292228258   -3.817384833683    1.674423748540
 K    0.014422228258   -0.343704833683    1.899323748540
 K    0.850502228258   -0.198284833683   -1.782176251460
 P   -2.766568247098    1.733617297758   -0.374709323157
 O   -4.206416417140    2.014470731702   -1.104105136121
 O   -1.833428456942    2.596900750680   -1.461161544628
 O   -2.375757512859    0.239505576887   -0.524137110602
 O   -2.641859788313    2.328005177997    1.033117280418
 C   -5.281360690154    1.249744448051   -0.516174761751
 H   -5.082843213893    0.173406816718   -0.627413837148
 H   -5.393536529877    1.505887337877    0.548403031119
 H   -6.190770946002    1.524653861599   -1.061626914465
 C   -0.806694348711    3.433450218745   -0.873848534918
 H   -1.244339832078    4.131574986219   -0.150187290392
 H   -0.037850994437    2.823875162362   -0.369081551822
 H   -0.361898746192    3.986321681407   -1.710946427732
