28

 P    2.593231709516   -1.625000289006    0.351232679201
 O    2.202421709516   -0.130890289006    0.500662679201
 O    2.468531709516   -2.219380289006   -1.056597320799
 O    4.033081709516   -1.905850289006    1.080632679201
 O    1.660091709516   -2.488290289006    1.437682679201
 C    5.108021709516   -1.141120289006    0.492702679201
 H    4.909501709516   -0.064790289006    0.603942679201
 H    5.220201709516   -1.397260289006   -0.571867320799
 H    6.017421709516   -1.416030289006    1.038152679201
 C    0.633361709516   -3.324840289006    0.850362679201
 H    1.071011709516   -4.022960289006    0.126702679201
 H   -0.135478290484   -2.715260289006    0.345602679201
 H    0.188561709516   -3.877710289006    1.687462679201
 K    0.110691709516   -0.404030289006    1.912362679201
 K    0.946771709516   -0.258610289006   -1.769137320799
 P   -2.922853803368    1.831550694917   -0.395876950788
 O   -4.362701973410    2.112404128861   -1.125272763752
 O   -1.989714013212    2.694834147839   -1.482329172259
 O   -2.532043069129    0.337438974047   -0.545304738233
 O   -2.798145344583    2.425938575156    1.011949652786
 C   -5.437646246424    1.347677845210   -0.537342389382
 H   -5.239128770163    0.271340213877   -0.648581464779
 H   -5.549822086148    1.603820735037    0.527235403488
 H   -6.347056502272    1.622587258758   -1.082794542096
 C   -0.962979904981    3.531383615904   -0.895016162549
 H   -1.400625388348    4.229508383378   -0.171354918023
 H   -0.194136550707    2.921808559521   -0.390249179453
 H   -0.518184302462    4.084255078566   -1.732114055363
