28

 P    2.625321536603   -1.645108774114    0.355578989422
 O    2.234511536603   -0.150998774114    0.505008989422
 O    2.500621536603   -2.239488774114   -1.052251010578
 O    4.065171536603   -1.925958774114    1.084978989422
 O    1.692181536603   -2.508398774114    1.442028989422
 C    5.140111536603   -1.161228774114    0.497048989422
 H    4.941591536603   -0.084898774114    0.608288989422
 H    5.252291536603   -1.417368774114   -0.567521010578
 H    6.049511536603   -1.436138774114    1.042498989422
 C    0.665451536603   -3.344948774114    0.854708989422
 H    1.103101536603   -4.043068774114    0.131048989422
 H   -0.103388463397   -2.735368774114    0.349948989422
 H    0.220651536603   -3.897818774114    1.691808989422
 K    0.142781536603   -0.424138774114    1.916708989422
 K    0.978861536603   -0.278718774114   -1.764791010578
 P   -2.974948988792    1.864195160637   -0.402932826665
 O   -4.414797158833    2.145048594581   -1.132328639629
 O   -2.041809198636    2.727478613559   -1.489385048136
 O   -2.584138254552    0.370083439766   -0.552360614110
 O   -2.850240530006    2.458583040876    1.004893776909
 C   -5.489741431847    1.380322310930   -0.544398265259
 H   -5.291223955586    0.303984679597   -0.655637340656
 H   -5.601917271571    1.636465200756    0.520179527611
 H   -6.399151687696    1.655231724478   -1.089850417973
 C   -1.015075090405    3.564028081624   -0.902072038426
 H   -1.452720573771    4.262152849098   -0.178410793900
 H   -0.246231736130    2.954453025241   -0.397305055330
 H   -0.570279487886    4.116899544286   -1.739169931240
