28

 P    2.753680844947   -1.725542714544    0.372964230303
 O    2.362870844947   -0.231432714544    0.522394230303
 O    2.628980844947   -2.319922714544   -1.034865769697
 O    4.193530844947   -2.006392714544    1.102364230303
 O    1.820540844947   -2.588832714544    1.459414230303
 C    5.268470844947   -1.241662714544    0.514434230303
 H    5.069950844947   -0.165332714544    0.625674230303
 H    5.380650844947   -1.497802714544   -0.550135769697
 H    6.177870844947   -1.516572714544    1.059884230303
 C    0.793810844947   -3.425382714544    0.872094230303
 H    1.231460844947   -4.123502714544    0.148434230303
 H    0.024970844947   -2.815802714544    0.367334230303
 H    0.349010844947   -3.978252714544    1.709194230303
 K    0.271140844947   -0.504572714544    1.934094230303
 K    1.107220844947   -0.359152714544   -1.747405769697
 P   -3.183329730485    1.994773023516   -0.431156330173
 O   -4.623177900527    2.275626457460   -1.160552143137
 O   -2.250189940329    2.858056476438   -1.517608551644
 O   -2.792518996246    0.500661302646   -0.580584117618
 O   -3.058621271700    2.589160903755    0.976670273401
 C   -5.698122173541    1.510900173809   -0.572621768767
 H   -5.499604697280    0.434562542476   -0.683860844164
 H   -5.810298013264    1.767043063636    0.491956024103
 H   -6.607532429389    1.785809587357   -1.118073921481
 C   -1.223455832098    3.694605944503   -0.930295541934
 H   -1.661101315465    4.392730711977   -0.206634297408
 H   -0.454612477824    3.085030888120   -0.425528558838
 H   -0.778660229579    4.247477407165   -1.767393434748
