28

 P    2.785770672033   -1.745651199651    0.377310540523
 O    2.394960672033   -0.251541199651    0.526740540523
 O    2.661070672033   -2.340031199651   -1.030519459477
 O    4.225620672033   -2.026501199651    1.106710540523
 O    1.852630672033   -2.608941199651    1.463760540523
 C    5.300560672033   -1.261771199651    0.518780540523
 H    5.102040672033   -0.185441199651    0.630020540523
 H    5.412740672033   -1.517911199651   -0.545789459477
 H    6.209960672033   -1.536681199651    1.064230540523
 C    0.825900672033   -3.445491199651    0.876440540523
 H    1.263550672033   -4.143611199651    0.152780540523
 H    0.057060672033   -2.835911199651    0.371680540523
 H    0.381100672033   -3.998361199651    1.713540540523
 K    0.303230672033   -0.524681199651    1.938440540523
 K    1.139310672033   -0.379261199651   -1.743059459477
 P   -3.235424915909    2.027417489236   -0.438212206050
 O   -4.675273085950    2.308270923180   -1.167608019014
 O   -2.302285125753    2.890700942158   -1.524664427521
 O   -2.844614181669    0.533305768365   -0.587639993495
 O   -3.110716457123    2.621805369475    0.969614397524
 C   -5.750217358964    1.543544639529   -0.579677644644
 H   -5.551699882703    0.467207008196   -0.690916720041
 H   -5.862393198688    1.799687529355    0.484900148226
 H   -6.659627614813    1.818454053077   -1.125129797358
 C   -1.275551017522    3.727250410223   -0.937351417811
 H   -1.713196500888    4.425375177697   -0.213690173285
 H   -0.506707663247    3.117675353840   -0.432584434715
 H   -0.830755415003    4.280121872885   -1.774449310625
