28

 P    3.010399461635   -1.886410595405    0.407734712065
 O    2.619589461635   -0.392300595405    0.557164712065
 O    2.885699461635   -2.480790595405   -1.000095287935
 O    4.450249461635   -2.167260595405    1.137134712065
 O    2.077259461635   -2.749700595405    1.494184712065
 C    5.525189461635   -1.402530595405    0.549204712065
 H    5.326669461635   -0.326200595405    0.660444712065
 H    5.637369461635   -1.658670595405   -0.515365287935
 H    6.434589461635   -1.677440595405    1.094654712065
 C    1.050529461635   -3.586250595405    0.906864712065
 H    1.488179461635   -4.284370595405    0.183204712065
 H    0.281689461635   -2.976670595405    0.402104712065
 H    0.605729461635   -4.139120595405    1.743964712065
 K    0.527859461635   -0.665440595405    1.968864712065
 K    1.363939461635   -0.520020595405   -1.712635287935
 P   -3.600091213872    2.255928749274   -0.487603337189
 O   -5.039939383914    2.536782183219   -1.216999150153
 O   -2.666951423716    3.119212202196   -1.574055558660
 O   -3.209280479633    0.761817028404   -0.637031124634
 O   -3.475382755087    2.850316629513    0.920223266385
 C   -6.114883656928    1.772055899567   -0.629068775783
 H   -5.916366180667    0.695718268234   -0.740307851180
 H   -6.227059496651    2.028198789394    0.435509017087
 H   -7.024293912776    2.046965313116   -1.174520928497
 C   -1.640217315485    3.955761670262   -0.986742548950
 H   -2.077862798852    4.653886437736   -0.263081304424
 H   -0.871373961211    3.346186613879   -0.481975565854
 H   -1.195421712966    4.508633132923   -1.823840441764
