28

 P    3.042489288721   -1.906519080512    0.412081022285
 O    2.651679288721   -0.412409080512    0.561511022285
 O    2.917789288721   -2.500899080512   -0.995748977715
 O    4.482339288721   -2.187369080512    1.141481022285
 O    2.109349288721   -2.769809080512    1.498531022285
 C    5.557279288721   -1.422639080512    0.553551022285
 H    5.358759288721   -0.346309080512    0.664791022285
 H    5.669459288721   -1.678779080512   -0.511018977715
 H    6.466679288721   -1.697549080512    1.099001022285
 C    1.082619288721   -3.606359080512    0.911211022285
 H    1.520269288721   -4.304479080512    0.187551022285
 H    0.313779288721   -2.996779080512    0.406451022285
 H    0.637819288721   -4.159229080512    1.748311022285
 K    0.559949288721   -0.685549080512    1.973211022285
 K    1.396029288721   -0.540129080512   -1.708288977715
 P   -3.652186399296    2.288573214994   -0.494659213066
 O   -5.092034569337    2.569426648938   -1.224055026030
 O   -2.719046609140    3.151856667916   -1.581111434537
 O   -3.261375665056    0.794461494124   -0.644087000511
 O   -3.527477940510    2.882961095233    0.913167390508
 C   -6.166978842351    1.804700365287   -0.636124651660
 H   -5.968461366090    0.728362733954   -0.747363727057
 H   -6.279154682075    2.060843255114    0.428453141210
 H   -7.076389098200    2.079609778835   -1.181576804374
 C   -1.692312500909    3.988406135982   -0.993798424827
 H   -2.129957984275    4.686530903455   -0.270137180301
 H   -0.923469146634    3.378831079599   -0.489031441731
 H   -1.247516898390    4.541277598643   -1.830896317641
