28

 P    3.331297732495   -2.087495446481    0.451197814268
 O    2.940487732495   -0.593385446481    0.600627814268
 O    3.206597732495   -2.681875446481   -0.956632185732
 O    4.771147732495   -2.368345446481    1.180597814268
 O    2.398157732495   -2.950785446481    1.537647814268
 C    5.846087732495   -1.603615446481    0.592667814268
 H    5.647567732495   -0.527285446481    0.703907814268
 H    5.958267732495   -1.859755446481   -0.471902185732
 H    6.755487732495   -1.878525446481    1.138117814268
 C    1.371427732495   -3.787335446481    0.950327814268
 H    1.809077732495   -4.485455446481    0.226667814268
 H    0.602587732495   -3.177755446481    0.445567814268
 H    0.926627732495   -4.340205446481    1.787427814268
 K    0.848757732495   -0.866525446481    2.012327814268
 K    1.684837732495   -0.721105446481   -1.669172185732
 P   -4.121043068106    2.582373406472   -0.558162095959
 O   -5.560891238147    2.863226840417   -1.287557908924
 O   -3.187903277950    3.445656859394   -1.644614317430
 O   -3.730232333866    1.088261685602   -0.707589883404
 O   -3.996334609321    3.176761286711    0.849664507615
 C   -6.635835511162    2.098500556765   -0.699627534554
 H   -6.437318034900    1.022162925432   -0.810866609951
 H   -6.748011350885    2.354643446592    0.364950258317
 H   -7.545245767010    2.373409970314   -1.245079687268
 C   -2.161169169719    4.282206327460   -1.057301307720
 H   -2.598814653086    4.980331094934   -0.333640063194
 H   -1.392325815445    3.672631271077   -0.552534324624
 H   -1.716373567200    4.835077790121   -1.894399200534
