28

 P    3.395477386667   -2.127712416696    0.459890434708
 O    3.004667386667   -0.633602416696    0.609320434708
 O    3.270777386667   -2.722092416696   -0.947939565292
 O    4.835327386667   -2.408562416696    1.189290434708
 O    2.462337386667   -2.991002416696    1.546340434708
 C    5.910267386667   -1.643832416696    0.601360434708
 H    5.711747386667   -0.567502416696    0.712600434708
 H    6.022447386667   -1.899972416696   -0.463209565292
 H    6.819667386667   -1.918742416696    1.146810434708
 C    1.435607386667   -3.827552416696    0.959020434708
 H    1.873257386667   -4.525672416696    0.235360434708
 H    0.666767386667   -3.217972416696    0.454260434708
 H    0.990807386667   -4.380422416696    1.796120434708
 K    0.912937386667   -0.906742416696    2.021020434708
 K    1.749017386667   -0.761322416696   -1.660479565292
 P   -4.225233438953    2.647662337912   -0.572273847713
 O   -5.665081608994    2.928515771856   -1.301669660678
 O   -3.292093648797    3.510945790834   -1.658726069184
 O   -3.834422704713    1.153550617041   -0.721701635158
 O   -4.100524980167    3.242050218151    0.835552755861
 C   -6.740025882008    2.163789488205   -0.713739286308
 H   -6.541508405747    1.087451856872   -0.824978361705
 H   -6.852201721732    2.419932378031    0.350838506563
 H   -7.649436137857    2.438698901753   -1.259191439022
 C   -2.265359540566    4.347495258899   -1.071413059474
 H   -2.703005023932    5.045620026373   -0.347751814948
 H   -1.496516186291    3.737920202516   -0.566646076378
 H   -1.820563938047    4.900366721561   -1.908510952288
