28

 P    3.459657040839   -2.167929386911    0.468583055149
 O    3.068847040839   -0.673819386911    0.618013055149
 O    3.334957040839   -2.762309386911   -0.939246944851
 O    4.899507040839   -2.448779386911    1.197983055149
 O    2.526517040839   -3.031219386911    1.555033055149
 C    5.974447040839   -1.684049386911    0.610053055149
 H    5.775927040839   -0.607719386911    0.721293055149
 H    6.086627040839   -1.940189386911   -0.454516944851
 H    6.883847040839   -1.958959386911    1.155503055149
 C    1.499787040839   -3.867769386911    0.967713055149
 H    1.937437040839   -4.565889386911    0.244053055149
 H    0.730947040839   -3.258189386911    0.462953055149
 H    1.054987040839   -4.420639386911    1.804813055149
 K    0.977117040839   -0.946959386911    2.029713055149
 K    1.813197040839   -0.801539386911   -1.651786944851
 P   -4.329423809799    2.712951269351   -0.586385599467
 O   -5.769271979841    2.993804703296   -1.315781412432
 O   -3.396284019643    3.576234722273   -1.672837820938
 O   -3.938613075560    1.218839548481   -0.735813386912
 O   -4.204715351014    3.307339149591    0.821441004107
 C   -6.844216252855    2.229078419644   -0.727851038062
 H   -6.645698776594    1.152740788311   -0.839090113459
 H   -6.956392092579    2.485221309471    0.336726754809
 H   -7.753626508703    2.503987833193   -1.273303190776
 C   -2.369549911412    4.412784190339   -1.085524811228
 H   -2.807195394779    5.110908957813   -0.361863566702
 H   -1.600706557138    3.803209133956   -0.580757828132
 H   -1.924754308893    4.965655653000   -1.922622704042
