28

 P    3.523836695011   -2.208146357126    0.477275675590
 O    3.133026695011   -0.714036357126    0.626705675590
 O    3.399136695011   -2.802526357126   -0.930554324410
 O    4.963686695011   -2.488996357126    1.206675675590
 O    2.590696695011   -3.071436357126    1.563725675590
 C    6.038626695011   -1.724266357126    0.618745675590
 H    5.840106695011   -0.647936357126    0.729985675590
 H    6.150806695011   -1.980406357126   -0.445824324410
 H    6.948026695011   -1.999176357126    1.164195675590
 C    1.563966695011   -3.907986357126    0.976405675590
 H    2.001616695011   -4.606106357126    0.252745675590
 H    0.795126695011   -3.298406357126    0.471645675590
 H    1.119166695011   -4.460856357126    1.813505675590
 K    1.041296695011   -0.987176357126    2.038405675590
 K    1.877376695011   -0.841756357126   -1.643094324410
 P   -4.433614180646    2.778240200791   -0.600497351221
 O   -5.873462350688    3.059093634735   -1.329893164186
 O   -3.500474390490    3.641523653713   -1.686949572692
 O   -4.042803446406    1.284128479921   -0.749925138666
 O   -4.308905721861    3.372628081030    0.807329252353
 C   -6.948406623702    2.294367351084   -0.741962789816
 H   -6.749889147441    1.218029719751   -0.853201865213
 H   -7.060582463425    2.550510240911    0.322615003055
 H   -7.857816879550    2.569276764632   -1.287414942530
 C   -2.473740282259    4.478073121778   -1.099636562982
 H   -2.911385765626    5.176197889252   -0.375975318457
 H   -1.704896927985    3.868498065395   -0.594869579886
 H   -2.028944679740    5.030944584440   -1.936734455796
