28

 P    3.620106176269   -2.268471812449    0.490314606251
 O    3.229296176269   -0.774361812449    0.639744606251
 O    3.495406176269   -2.862851812449   -0.917515393749
 O    5.059956176269   -2.549321812449    1.219714606251
 O    2.686966176269   -3.131761812449    1.576764606251
 C    6.134896176269   -1.784591812449    0.631784606251
 H    5.936376176269   -0.708261812449    0.743024606251
 H    6.247076176269   -2.040731812449   -0.432785393749
 H    7.044296176269   -2.059501812449    1.177234606251
 C    1.660236176269   -3.968311812449    0.989444606251
 H    2.097886176269   -4.666431812449    0.265784606251
 H    0.891396176269   -3.358731812449    0.484684606251
 H    1.215436176269   -4.521181812449    1.826544606251
 K    1.137566176269   -1.047501812449    2.051444606251
 K    1.973646176269   -0.902081812449   -1.630055393749
 P   -4.589899736916    2.876173597950   -0.621664978852
 O   -6.029747906958    3.157027031895   -1.351060791817
 O   -3.656759946760    3.739457050872   -1.708117200323
 O   -4.199089002677    1.382061877080   -0.771092766297
 O   -4.465191278131    3.470561478189    0.786161624722
 C   -7.104692179972    2.392300748243   -0.763130417447
 H   -6.906174703711    1.315963116910   -0.874369492844
 H   -7.216868019696    2.648443638070    0.301447375424
 H   -8.014102435820    2.667210161792   -1.308582570161
 C   -2.630025838529    4.576006518938   -1.120804190613
 H   -3.067671321896    5.274131286412   -0.397142946088
 H   -1.861182484255    3.966431462555   -0.616037207517
 H   -2.185230236010    5.128877981599   -1.957902083427
