28

 P    3.780555311699   -2.369014237987    0.512046157352
 O    3.389745311699   -0.874904237987    0.661476157352
 O    3.655855311699   -2.963394237987   -0.895783842648
 O    5.220405311699   -2.649864237987    1.241446157352
 O    2.847415311699   -3.232304237987    1.598496157352
 C    6.295345311699   -1.885134237987    0.653516157352
 H    6.096825311699   -0.808804237987    0.764756157352
 H    6.407525311699   -2.141274237987   -0.411053842648
 H    7.204745311699   -2.160044237987    1.198966157352
 C    1.820685311699   -4.068854237987    1.011176157352
 H    2.258335311699   -4.766974237987    0.287516157352
 H    1.051845311699   -3.459274237987    0.506416157352
 H    1.375885311699   -4.621724237987    1.848276157352
 K    1.298015311699   -1.148044237987    2.073176157352
 K    2.134095311699   -1.002624237987   -1.608323842648
 P   -4.850375664033    3.039395926549   -0.656944358237
 O   -6.290223834075    3.320249360494   -1.386340171202
 O   -3.917235873877    3.902679379471   -1.743396579708
 O   -4.459564929793    1.545284205679   -0.806372145682
 O   -4.725667205248    3.633783806788    0.750882245337
 C   -7.365168107089    2.555523076842   -0.798409796832
 H   -7.166650630828    1.479185445509   -0.909648872229
 H   -7.477343946812    2.811665966669    0.266167996039
 H   -8.274578362937    2.830432490391   -1.343861949546
 C   -2.890501765646    4.739228847537   -1.156083569998
 H   -3.328147249013    5.437353615011   -0.432422325473
 H   -2.121658411372    4.129653791154   -0.651316586902
 H   -2.445706163127    5.292100310198   -1.993181462812
