28

 P    3.876824792957   -2.429339693310    0.525085088013
 O    3.486014792957   -0.935229693310    0.674515088013
 O    3.752124792957   -3.023719693310   -0.882744911987
 O    5.316674792957   -2.710189693310    1.254485088013
 O    2.943684792957   -3.292629693310    1.611535088013
 C    6.391614792957   -1.945459693310    0.666555088013
 H    6.193094792957   -0.869129693310    0.777795088013
 H    6.503794792957   -2.201599693310   -0.398014911987
 H    7.301014792957   -2.220369693310    1.212005088013
 C    1.916954792957   -4.129179693310    1.024215088013
 H    2.354604792957   -4.827299693310    0.300555088013
 H    1.148114792957   -3.519599693310    0.519455088013
 H    1.472154792957   -4.682049693310    1.861315088013
 K    1.394284792957   -1.208369693310    2.086215088013
 K    2.230364792957   -1.062949693310   -1.595284911987
 P   -5.006661220303    3.137329323709   -0.678111985868
 O   -6.446509390345    3.418182757653   -1.407507798833
 O   -4.073521430147    4.000612776631   -1.764564207339
 O   -4.615850486064    1.643217602838   -0.827539773313
 O   -4.881952761518    3.731717203948    0.729714617706
 C   -7.521453663359    2.653456474002   -0.819577424463
 H   -7.322936187098    1.577118842669   -0.930816499860
 H   -7.633629503082    2.909599363828    0.245000368408
 H   -8.430863919207    2.928365887550   -1.365029577177
 C   -3.046787321916    4.837162244696   -1.177251197629
 H   -3.484432805283    5.535287012170   -0.453589953104
 H   -2.277943967642    4.227587188313   -0.672484214533
 H   -2.601991719397    5.390033707358   -2.014349090443
