28

 P    3.941004447129   -2.469556663525    0.533777708453
 O    3.550194447129   -0.975446663525    0.683207708453
 O    3.816304447129   -3.063936663525   -0.874052291547
 O    5.380854447129   -2.750406663525    1.263177708453
 O    3.007864447129   -3.332846663525    1.620227708453
 C    6.455794447129   -1.985676663525    0.675247708453
 H    6.257274447129   -0.909346663525    0.786487708453
 H    6.567974447129   -2.241816663525   -0.389322291547
 H    7.365194447129   -2.260586663525    1.220697708453
 C    1.981134447129   -4.169396663525    1.032907708453
 H    2.418784447129   -4.867516663525    0.309247708453
 H    1.212294447129   -3.559816663525    0.528147708453
 H    1.536334447129   -4.722266663525    1.870007708453
 K    1.458464447129   -1.248586663525    2.094907708453
 K    2.294544447129   -1.103166663525   -1.586592291547
 P   -5.110851591150    3.202618255148   -0.692223737622
 O   -6.550699761192    3.483471689093   -1.421619550587
 O   -4.177711800994    4.065901708070   -1.778675959093
 O   -4.720040856910    1.708506534278   -0.841651525067
 O   -4.986143132365    3.797006135387    0.715602865952
 C   -7.625644034206    2.718745405441   -0.833689176217
 H   -7.427126557944    1.642407774108   -0.944928251614
 H   -7.737819873929    2.974888295268    0.230888616654
 H   -8.535054290054    2.993654818990   -1.379141328931
 C   -3.150977692763    4.902451176136   -1.191362949383
 H   -3.588623176130    5.600575943610   -0.467701704858
 H   -2.382134338489    4.292876119753   -0.686595966287
 H   -2.706182090244    5.455322638797   -2.028460842197
