28

 P    3.973094274215   -2.489665148633    0.538124018674
 O    3.582284274215   -0.995555148633    0.687554018674
 O    3.848394274215   -3.084045148633   -0.869705981326
 O    5.412944274215   -2.770515148633    1.267524018674
 O    3.039954274215   -3.352955148633    1.624574018674
 C    6.487884274215   -2.005785148633    0.679594018674
 H    6.289364274215   -0.929455148633    0.790834018674
 H    6.600064274215   -2.261925148633   -0.384975981326
 H    7.397284274215   -2.280695148633    1.225044018674
 C    2.013224274215   -4.189505148633    1.037254018674
 H    2.450874274215   -4.887625148633    0.313594018674
 H    1.244384274215   -3.579925148633    0.532494018674
 H    1.568424274215   -4.742375148633    1.874354018674
 K    1.490554274215   -1.268695148633    2.099254018674
 K    2.326634274215   -1.123275148633   -1.582245981326
 P   -5.162946776573    3.235262720868   -0.699279613499
 O   -6.602794946615    3.516116154812   -1.428675426464
 O   -4.229806986417    4.098546173790   -1.785731834970
 O   -4.772136042334    1.741150999998   -0.848707400944
 O   -5.038238317788    3.829650601107    0.708546990075
 C   -7.677739219629    2.751389871161   -0.840745052094
 H   -7.479221743368    1.675052239828   -0.951984127491
 H   -7.789915059353    3.007532760988    0.223832740777
 H   -8.587149475477    3.026299284709   -1.386197204808
 C   -3.203072878186    4.935095641855   -1.198418825260
 H   -3.640718361553    5.633220409329   -0.474757580735
 H   -2.434229523912    4.325520585473   -0.693651842164
 H   -2.758277275667    5.487967104517   -2.035516718074
