28

 P    4.005184101301   -2.509773633740    0.542470328894
 O    3.614374101301   -1.015663633740    0.691900328894
 O    3.880484101301   -3.104153633740   -0.865359671106
 O    5.445034101301   -2.790623633740    1.271870328894
 O    3.072044101301   -3.373063633740    1.628920328894
 C    6.519974101301   -2.025893633740    0.683940328894
 H    6.321454101301   -0.949563633740    0.795180328894
 H    6.632154101301   -2.282033633740   -0.380629671106
 H    7.429374101301   -2.300803633740    1.229390328894
 C    2.045314101301   -4.209613633740    1.041600328894
 H    2.482964101301   -4.907733633740    0.317940328894
 H    1.276474101301   -3.600033633740    0.536840328894
 H    1.600514101301   -4.762483633740    1.878700328894
 K    1.522644101301   -1.288803633740    2.103600328894
 K    2.358724101301   -1.143383633740   -1.577899671106
 P   -5.215041961997    3.267907186588   -0.706335489376
 O   -6.654890132038    3.548760620532   -1.435731302341
 O   -4.281902171841    4.131190639510   -1.792787710847
 O   -4.824231227757    1.773795465717   -0.855763276821
 O   -5.090333503211    3.862295066827    0.701491114198
 C   -7.729834405052    2.784034336881   -0.847800927971
 H   -7.531316928791    1.707696705548   -0.959040003368
 H   -7.842010244776    3.040177226707    0.216776864900
 H   -8.639244660901    3.058943750429   -1.393253080685
 C   -3.255168063610    4.967740107575   -1.205474701137
 H   -3.692813546976    5.665864875049   -0.481813456612
 H   -2.486324709335    4.358165051192   -0.700707718041
 H   -2.810372461091    5.520611570237   -2.042572593951
