28

 P    4.069363755473   -2.549990603955    0.551162949335
 O    3.678553755473   -1.055880603955    0.700592949335
 O    3.944663755473   -3.144370603955   -0.856667050665
 O    5.509213755473   -2.830840603955    1.280562949335
 O    3.136223755473   -3.413280603955    1.637612949335
 C    6.584153755473   -2.066110603955    0.692632949335
 H    6.385633755473   -0.989780603955    0.803872949335
 H    6.696333755473   -2.322250603955   -0.371937050665
 H    7.493553755473   -2.341020603955    1.238082949335
 C    2.109493755473   -4.249830603955    1.050292949335
 H    2.547143755473   -4.947950603955    0.326632949335
 H    1.340653755473   -3.640250603955    0.545532949335
 H    1.664693755473   -4.802700603955    1.887392949335
 K    1.586823755473   -1.329020603955    2.112292949335
 K    2.422903755473   -1.183600603955   -1.569207050665
 P   -5.319232332844    3.333196118027   -0.720447241130
 O   -6.759080502885    3.614049551972   -1.449843054095
 O   -4.386092542688    4.196479570949   -1.806899462601
 O   -4.928421598604    1.839084397157   -0.869875028575
 O   -5.194523874058    3.927583998267    0.687379362444
 C   -7.834024775899    2.849323268320   -0.861912679725
 H   -7.635507299638    1.772985636987   -0.973151755122
 H   -7.946200615623    3.105466158147    0.202665113146
 H   -8.743435031748    3.124232681869   -1.407364832439
 C   -3.359358434457    5.033029039015   -1.219586452891
 H   -3.797003917823    5.731153806489   -0.495925208366
 H   -2.590515080182    4.423453982632   -0.714819469795
 H   -2.914562831937    5.585900501677   -2.056684345705
