28

 P    4.101453582559   -2.570099089063    0.555509259555
 O    3.710643582559   -1.075989089063    0.704939259555
 O    3.976753582559   -3.164479089063   -0.852320740445
 O    5.541303582559   -2.850949089063    1.284909259555
 O    3.168313582559   -3.433389089063    1.641959259555
 C    6.616243582559   -2.086219089063    0.696979259555
 H    6.417723582559   -1.009889089063    0.808219259555
 H    6.728423582559   -2.342359089063   -0.367590740445
 H    7.525643582559   -2.361129089063    1.242429259555
 C    2.141583582559   -4.269939089063    1.054639259555
 H    2.579233582559   -4.968059089063    0.330979259555
 H    1.372743582559   -3.660359089063    0.549879259555
 H    1.696783582559   -4.822809089063    1.891739259555
 K    1.618913582559   -1.349129089063    2.116639259555
 K    2.454993582559   -1.203709089063   -1.564860740445
 P   -5.371327518267    3.365840583747   -0.727503117007
 O   -6.811175688308    3.646694017692   -1.456898929972
 O   -4.438187728111    4.229124036669   -1.813955338478
 O   -4.980516784027    1.871728862877   -0.876930904452
 O   -5.246619059482    3.960228463986    0.680323486567
 C   -7.886119961323    2.881967734040   -0.868968555602
 H   -7.687602485061    1.805630102707   -0.980207630999
 H   -7.998295801046    3.138110623867    0.195609237269
 H   -8.795530217171    3.156877147588   -1.414420708316
 C   -3.411453619880    5.065673504735   -1.226642328768
 H   -3.849099103247    5.763798272209   -0.502981084243
 H   -2.642610265606    4.456098448352   -0.721875345672
 H   -2.966658017361    5.618544967396   -2.063740221582
