28

 P    4.165633236731   -2.610316059278    0.564201879995
 O    3.774823236731   -1.116206059278    0.713631879995
 O    4.040933236731   -3.204696059278   -0.843628120005
 O    5.605483236731   -2.891166059278    1.293601879995
 O    3.232493236731   -3.473606059278    1.650651879995
 C    6.680423236731   -2.126436059278    0.705671879995
 H    6.481903236731   -1.050106059278    0.816911879995
 H    6.792603236731   -2.382576059278   -0.358898120005
 H    7.589823236731   -2.401346059278    1.251121879995
 C    2.205763236731   -4.310156059278    1.063331879995
 H    2.643413236731   -5.008276059278    0.339671879995
 H    1.436923236731   -3.700576059278    0.558571879995
 H    1.760963236731   -4.863026059278    1.900431879995
 K    1.683093236731   -1.389346059278    2.125331879995
 K    2.519173236731   -1.243926059278   -1.556168120005
 P   -5.475517889114    3.431129515187   -0.741614868761
 O   -6.915366059155    3.711982949131   -1.471010681726
 O   -4.542378098958    4.294412968109   -1.828067090232
 O   -5.084707154874    1.937017794316   -0.891042656206
 O   -5.350809430328    4.025517395426    0.666211734813
 C   -7.990310332169    2.947256665480   -0.883080307356
 H   -7.791792855908    1.870919034147   -0.994319382753
 H   -8.102486171893    3.203399555306    0.181497485515
 H   -8.899720588018    3.222166079028   -1.428532460070
 C   -3.515643990727    5.130962436174   -1.240754080522
 H   -3.953289474093    5.829087203648   -0.517092835997
 H   -2.746800636452    4.521387379791   -0.735987097426
 H   -3.070848388208    5.683833898836   -2.077851973337
