28

 P    4.326082372161   -2.710858484816    0.585933431097
 O    3.935272372161   -1.216748484816    0.735363431097
 O    4.201382372161   -3.305238484816   -0.821896568903
 O    5.765932372161   -2.991708484816    1.315333431097
 O    3.392942372161   -3.574148484816    1.672383431097
 C    6.840872372161   -2.226978484816    0.727403431097
 H    6.642352372161   -1.150648484816    0.838643431097
 H    6.953052372161   -2.483118484816   -0.337166568903
 H    7.750272372161   -2.501888484816    1.272853431097
 C    2.366212372161   -4.410698484816    1.085063431097
 H    2.803862372161   -5.108818484816    0.361403431097
 H    1.597372372161   -3.801118484816    0.580303431097
 H    1.921412372161   -4.963568484816    1.922163431097
 K    1.843542372161   -1.489888484816    2.147063431097
 K    2.679622372161   -1.344468484816   -1.534436568903
 P   -5.735993816231    3.594351843786   -0.776894248147
 O   -7.175841986272    3.875205277730   -1.506290061111
 O   -4.802854026074    4.457635296708   -1.863346469617
 O   -5.345183081991    2.100240122915   -0.926322035591
 O   -5.611285357445    4.188739724025    0.630932355428
 C   -8.250786259286    3.110478994079   -0.918359686741
 H   -8.052268783025    2.034141362746   -1.029598762138
 H   -8.362962099010    3.366621883905    0.146218106130
 H   -9.160196515135    3.385388407627   -1.463811839455
 C   -3.776119917844    5.294184764773   -1.276033459907
 H   -4.213765401210    5.992309532247   -0.552372215382
 H   -3.007276563569    4.684609708390   -0.771266476811
 H   -3.331324315324    5.847056227435   -2.113131352722
