28

 P    4.358172199247   -2.730966969924    0.590279741317
 O    3.967362199247   -1.236856969924    0.739709741317
 O    4.233472199247   -3.325346969924   -0.817550258683
 O    5.798022199247   -3.011816969924    1.319679741317
 O    3.425032199247   -3.594256969924    1.676729741317
 C    6.872962199247   -2.247086969924    0.731749741317
 H    6.674442199247   -1.170756969924    0.842989741317
 H    6.985142199247   -2.503226969924   -0.332820258683
 H    7.782362199247   -2.521996969924    1.277199741317
 C    2.398302199247   -4.430806969924    1.089409741317
 H    2.835952199247   -5.128926969924    0.365749741317
 H    1.629462199247   -3.821226969924    0.584649741317
 H    1.953502199247   -4.983676969924    1.926509741317
 K    1.875632199247   -1.509996969924    2.151409741317
 K    2.711712199247   -1.364576969924   -1.530090258683
 P   -5.788089001654    3.626996309506   -0.783950124024
 O   -7.227937171695    3.907849743450   -1.513345936988
 O   -4.854949211498    4.490279762427   -1.870402345494
 O   -5.397278267414    2.132884588635   -0.933377911468
 O   -5.663380542869    4.221384189745    0.623876479551
 C   -8.302881444710    3.143123459798   -0.925415562618
 H   -8.104363968448    2.066785828465   -1.036654638015
 H   -8.415057284433    3.399266349625    0.139162230253
 H   -9.212291700558    3.418032873347   -1.470867715332
 C   -3.828215103267    5.326829230493   -1.283089335784
 H   -4.265860586633    6.024953997967   -0.559428091259
 H   -3.059371748993    4.717254174110   -0.778322352688
 H   -3.383419500748    5.879700693155   -2.120187228599
