28

 P    4.422351853419   -2.771183940139    0.598972361758
 O    4.031541853419   -1.277073940139    0.748402361758
 O    4.297651853419   -3.365563940139   -0.808857638242
 O    5.862201853419   -3.052033940139    1.328372361758
 O    3.489211853419   -3.634473940139    1.685422361758
 C    6.937141853419   -2.287303940139    0.740442361758
 H    6.738621853419   -1.210973940139    0.851682361758
 H    7.049321853419   -2.543443940139   -0.324127638242
 H    7.846541853419   -2.562213940139    1.285892361758
 C    2.462481853419   -4.471023940139    1.098102361758
 H    2.900131853419   -5.169143940139    0.374442361758
 H    1.693641853419   -3.861443940139    0.593342361758
 H    2.017681853419   -5.023893940139    1.935202361758
 K    1.939811853419   -1.550213940139    2.160102361758
 K    2.775891853419   -1.404793940139   -1.521397638242
 P   -5.892279372501    3.692285240945   -0.798061875778
 O   -7.332127542542    3.973138674889   -1.527457688742
 O   -4.959139582345    4.555568693867   -1.884514097248
 O   -5.501468638261    2.198173520075   -0.947489663222
 O   -5.767570913715    4.286673121184    0.609764727797
 C   -8.407071815556    3.208412391238   -0.939527314372
 H   -8.208554339295    2.132074759905   -1.050766389769
 H   -8.519247655280    3.464555281065    0.125050478499
 H   -9.316482071405    3.483321804786   -1.484979467086
 C   -3.932405474114    5.392118161933   -1.297201087538
 H   -4.370050957480    6.090242929406   -0.573539843013
 H   -3.163562119839    4.782543105550   -0.792434104442
 H   -3.487609871595    5.944989624594   -2.134298980353
