15

 N   -2.408999695026   -0.202053554633   -0.000000134849
 H   -1.893049695026    0.300536445367    0.739209865151
 H   -1.893049695026    0.300536445367   -0.739210134849
 C   -3.858659695026    0.017006445367   -0.000000134849
 H   -4.192669695026   -0.567253554633   -0.858980134849
 H   -4.247729695026    1.031126445367   -0.000000134849
 H   -4.192669695026   -0.567253554633    0.858979865151
CS    0.229710304974    0.019266445367   -0.000000134849
 N    1.425511504970    0.119563454733   -0.000000134849
 H    0.909557629933   -0.383024964520   -0.739207067762
 H    0.909557066038   -0.383018852350    0.739210560117
 C    2.875164119522   -0.099493225654    0.000001375482
 H    3.209174271840    0.484767912367    0.858975897308
 H    3.264236764452   -1.113609191926    0.000005696423
 H    3.209174997681    0.484760870991   -0.858977653496
