15

 N   -2.520049104649   -0.211367748060   -0.000000134849
 H   -2.004099104649    0.291222251940    0.739209865151
 H   -2.004099104649    0.291222251940   -0.739210134849
 C   -3.969709104649    0.007692251940   -0.000000134849
 H   -4.303719104649   -0.576567748060   -0.858980134849
 H   -4.358779104649    1.021812251940   -0.000000134849
 H   -4.303719104649   -0.576567748060    0.858979865151
CS    0.118660895351    0.009952251940   -0.000000134849
 N    2.012012795345    0.168755850103   -0.000000134849
 H    1.496058920308   -0.333832569150   -0.739207067762
 H    1.496058356413   -0.333826456981    0.739210560117
 C    3.461665409896   -0.050300830284    0.000001375482
 H    3.795675562214    0.533960307736    0.858975897308
 H    3.850738054827   -1.064416796556    0.000005696423
 H    3.795676288056    0.533953266361   -0.858977653496
