15

 N   -2.567641708773   -0.215359545243   -0.000000134849
 H   -2.051691708773    0.287230454757    0.739209865151
 H   -2.051691708773    0.287230454757   -0.739210134849
 C   -4.017301708773    0.003700454757   -0.000000134849
 H   -4.351311708773   -0.580559545243   -0.858980134849
 H   -4.406371708773    1.017820454757   -0.000000134849
 H   -4.351311708773   -0.580559545243    0.858979865151
CS    0.071068291227    0.005960454757   -0.000000134849
 N    2.263370491220    0.189838305261   -0.000000134849
 H    1.747416616182   -0.312750113992   -0.739207067762
 H    1.747416052288   -0.312744001822    0.739210560117
 C    3.713023105771   -0.029218375126    0.000001375482
 H    4.047033258089    0.555042762895    0.858975897308
 H    4.102095750702   -1.043334341398    0.000005696423
 H    4.047033983931    0.555035721519   -0.858977653496
