15

 N   -2.583505910148   -0.216690144304   -0.000000134849
 H   -2.067555910148    0.285899855696    0.739209865151
 H   -2.067555910148    0.285899855696   -0.739210134849
 C   -4.033165910148    0.002369855696   -0.000000134849
 H   -4.367175910148   -0.581890144304   -0.858980134849
 H   -4.422235910148    1.016489855696   -0.000000134849
 H   -4.367175910148   -0.581890144304    0.858979865151
CS    0.055204089852    0.004629855696   -0.000000134849
 N    2.347156389845    0.196865790314   -0.000000134849
 H    1.831202514807   -0.305722628939   -0.739207067762
 H    1.831201950913   -0.305716516770    0.739210560117
 C    3.796809004396   -0.022190890073    0.000001375482
 H    4.130819156714    0.562070247948    0.858975897308
 H    4.185881649327   -1.036306856345    0.000005696423
 H    4.130819882556    0.562063206572   -0.858977653496
