15

 N   -2.678691118396   -0.224673738670   -0.000000134849
 H   -2.162741118396    0.277916261330    0.739209865151
 H   -2.162741118396    0.277916261330   -0.739210134849
 C   -4.128351118396   -0.005613738670   -0.000000134849
 H   -4.462361118396   -0.589873738670   -0.858980134849
 H   -4.517421118396    1.008506261330   -0.000000134849
 H   -4.462361118396   -0.589873738670    0.858979865151
CS   -0.039981118396   -0.003353738670   -0.000000134849
 N    2.849871781595    0.239030700631   -0.000000134849
 H    2.333917906557   -0.263557718622   -0.739207067762
 H    2.333917342663   -0.263551606453    0.739210560117
 C    4.299524396146    0.019974020244    0.000001375482
 H    4.633534548464    0.604235158264    0.858975897308
 H    4.688597041077   -0.994141946028    0.000005696423
 H    4.633535274306    0.604228116889   -0.858977653496
