15

 N   -2.710419521146   -0.227334936792   -0.000000134849
 H   -2.194469521146    0.275255063208    0.739209865151
 H   -2.194469521146    0.275255063208   -0.739210134849
 C   -4.160079521146   -0.008274936792   -0.000000134849
 H   -4.494089521146   -0.592534936792   -0.858980134849
 H   -4.549149521146    1.005845063208   -0.000000134849
 H   -4.494089521146   -0.592534936792    0.858979865151
CS   -0.071709521146   -0.006014936792   -0.000000134849
 N    3.017443578845    0.253085670736   -0.000000134849
 H    2.501489703807   -0.249502748517   -0.739207067762
 H    2.501489139913   -0.249496636347    0.739210560117
 C    4.467096193396    0.034028990349    0.000001375482
 H    4.801106345714    0.618290128370    0.858975897308
 H    4.856168838327   -0.980086975923    0.000005696423
 H    4.801107071556    0.618283086995   -0.858977653496
