15

 N   -2.805604729394   -0.235318531158   -0.000000134849
 H   -2.289654729394    0.267271468842    0.739209865151
 H   -2.289654729394    0.267271468842   -0.739210134849
 C   -4.255264729394   -0.016258531158   -0.000000134849
 H   -4.589274729394   -0.600518531158   -0.858980134849
 H   -4.644334729394    0.997861468842   -0.000000134849
 H   -4.589274729394   -0.600518531158    0.858979865151
CS   -0.166894729394   -0.013998531158   -0.000000134849
 N    3.520158970594    0.295250581053   -0.000000134849
 H    3.004205095557   -0.207337838200   -0.739207067762
 H    3.004204531663   -0.207331726030    0.739210560117
 C    4.969811585146    0.076193900666    0.000001375482
 H    5.303821737464    0.660455038687    0.858975897308
 H    5.358884230077   -0.937922065606    0.000005696423
 H    5.303822463305    0.660447997311   -0.858977653496
