15

 N   -2.821468930769   -0.236649130219   -0.000000134849
 H   -2.305518930769    0.265940869781    0.739209865151
 H   -2.305518930769    0.265940869781   -0.739210134849
 C   -4.271128930769   -0.017589130219   -0.000000134849
 H   -4.605138930769   -0.601849130219   -0.858980134849
 H   -4.660198930769    0.996530869781   -0.000000134849
 H   -4.605138930769   -0.601849130219    0.858979865151
CS   -0.182758930769   -0.015329130219   -0.000000134849
 N    3.603944869219    0.302278066106   -0.000000134849
 H    3.087990994182   -0.200310353147   -0.739207067762
 H    3.087990430288   -0.200304240978    0.739210560117
 C    5.053597483771    0.083221385719    0.000001375482
 H    5.387607636089    0.667482523740    0.858975897308
 H    5.442670128702   -0.930894580553    0.000005696423
 H    5.387608361930    0.667475482364   -0.858977653496
