15

 N   -2.853197333518   -0.239310328341   -0.000000134849
 H   -2.337247333518    0.263279671659    0.739209865151
 H   -2.337247333518    0.263279671659   -0.739210134849
 C   -4.302857333518   -0.020250328341   -0.000000134849
 H   -4.636867333518   -0.604510328341   -0.858980134849
 H   -4.691927333518    0.993869671659   -0.000000134849
 H   -4.636867333518   -0.604510328341    0.858979865151
CS   -0.214487333518   -0.017990328341   -0.000000134849
 N    3.771516666469    0.316333036212   -0.000000134849
 H    3.255562791432   -0.186255383041   -0.739207067762
 H    3.255562227538   -0.186249270872    0.739210560117
 C    5.221169281021    0.097276355825    0.000001375482
 H    5.555179433339    0.681537493845    0.858975897308
 H    5.610241925951   -0.916839610448    0.000005696423
 H    5.555180159180    0.681530452470   -0.858977653496
