15

 N   -2.869061534893   -0.240640927402   -0.000000134849
 H   -2.353111534893    0.261949072598    0.739209865151
 H   -2.353111534893    0.261949072598   -0.739210134849
 C   -4.318721534893   -0.021580927402   -0.000000134849
 H   -4.652731534893   -0.605840927402   -0.858980134849
 H   -4.707791534893    0.992539072598   -0.000000134849
 H   -4.652731534893   -0.605840927402    0.858979865151
CS   -0.230351534893   -0.019320927402   -0.000000134849
 N    3.855302565094    0.323360521264   -0.000000134849
 H    3.339348690057   -0.179227897989   -0.739207067762
 H    3.339348126162   -0.179221785819    0.739210560117
 C    5.304955179646    0.104303840877    0.000001375482
 H    5.638965331964    0.688564978898    0.858975897308
 H    5.694027824576   -0.909812125395    0.000005696423
 H    5.638966057805    0.688557937523   -0.858977653496
