15

 N   -2.916654139017   -0.244632724585   -0.000000134849
 H   -2.400704139017    0.257957275415    0.739209865151
 H   -2.400704139017    0.257957275415   -0.739210134849
 C   -4.366314139017   -0.025572724585   -0.000000134849
 H   -4.700324139017   -0.609832724585   -0.858980134849
 H   -4.755384139017    0.988547275415   -0.000000134849
 H   -4.700324139017   -0.609832724585    0.858979865151
CS   -0.277944139017   -0.023312724585   -0.000000134849
 N    4.106660260969    0.344442976423   -0.000000134849
 H    3.590706385932   -0.158145442830   -0.739207067762
 H    3.590705822037   -0.158139330661    0.739210560117
 C    5.556312875521    0.125386296036    0.000001375482
 H    5.890323027839    0.709647434056    0.858975897308
 H    5.945385520451   -0.888729670236    0.000005696423
 H    5.890323753680    0.709640392681   -0.858977653496
