15

 N   -2.932518340392   -0.245963323646   -0.000000134849
 H   -2.416568340392    0.256626676354    0.739209865151
 H   -2.416568340392    0.256626676354   -0.739210134849
 C   -4.382178340392   -0.026903323646   -0.000000134849
 H   -4.716188340392   -0.611163323646   -0.858980134849
 H   -4.771248340392    0.987216676354   -0.000000134849
 H   -4.716188340392   -0.611163323646    0.858979865151
CS   -0.293808340392   -0.024643323646   -0.000000134849
 N    4.190446159594    0.351470461476   -0.000000134849
 H    3.674492284557   -0.151117957777   -0.739207067762
 H    3.674491720662   -0.151111845608    0.739210560117
 C    5.640098774145    0.132413781089    0.000001375482
 H    5.974108926463    0.716674919109    0.858975897308
 H    6.029171419076   -0.881702185184    0.000005696423
 H    5.974109652305    0.716667877734   -0.858977653496
