15

 N   -2.980110944516   -0.249955120829   -0.000000134849
 H   -2.464160944516    0.252634879171    0.739209865151
 H   -2.464160944516    0.252634879171   -0.739210134849
 C   -4.429770944516   -0.030895120829   -0.000000134849
 H   -4.763780944516   -0.615155120829   -0.858980134849
 H   -4.818840944516    0.983224879171   -0.000000134849
 H   -4.763780944516   -0.615155120829    0.858979865151
CS   -0.341400944516   -0.028635120829   -0.000000134849
 N    4.441803855469    0.372552916634   -0.000000134849
 H    3.925849980432   -0.130035502619   -0.739207067762
 H    3.925849416537   -0.130029390450    0.739210560117
 C    5.891456470020    0.153496236247    0.000001375482
 H    6.225466622338    0.737757374268    0.858975897308
 H    6.280529114951   -0.860619730025    0.000005696423
 H    6.225467348180    0.737750332892   -0.858977653496
