15

 N   -3.011839347265   -0.252616318951   -0.000000134849
 H   -2.495889347265    0.249973681049    0.739209865151
 H   -2.495889347265    0.249973681049   -0.739210134849
 C   -4.461499347265   -0.033556318951   -0.000000134849
 H   -4.795509347265   -0.617816318951   -0.858980134849
 H   -4.850569347265    0.980563681049   -0.000000134849
 H   -4.795509347265   -0.617816318951    0.858979865151
CS   -0.373129347265   -0.031296318951   -0.000000134849
 N    4.609375652719    0.386607886740   -0.000000134849
 H    4.093421777682   -0.115980532513   -0.739207067762
 H    4.093421213787   -0.115974420344    0.739210560117
 C    6.059028267270    0.167551206353    0.000001375482
 H    6.393038419588    0.751812344373    0.858975897308
 H    6.448100912201   -0.846564759919    0.000005696423
 H    6.393039145430    0.751805302998   -0.858977653496
