15

 N   -3.027703548640   -0.253946918012   -0.000000134849
 H   -2.511753548640    0.248643081988    0.739209865151
 H   -2.511753548640    0.248643081988   -0.739210134849
 C   -4.477363548640   -0.034886918012   -0.000000134849
 H   -4.811373548640   -0.619146918012   -0.858980134849
 H   -4.866433548640    0.979233081988   -0.000000134849
 H   -4.811373548640   -0.619146918012    0.858979865151
CS   -0.388993548640   -0.032626918012   -0.000000134849
 N    4.693161551344    0.393635371792   -0.000000134849
 H    4.177207676307   -0.108953047461   -0.739207067762
 H    4.177207112412   -0.108946935291    0.739210560117
 C    6.142814165895    0.174578691405    0.000001375482
 H    6.476824318213    0.758839829426    0.858975897308
 H    6.531886810826   -0.839537274867    0.000005696423
 H    6.476825044055    0.758832788051   -0.858977653496
