15

 N   -3.059431951389   -0.256608116134   -0.000000134849
 H   -2.543481951389    0.245981883866    0.739209865151
 H   -2.543481951389    0.245981883866   -0.739210134849
 C   -4.509091951389   -0.037548116134   -0.000000134849
 H   -4.843101951389   -0.621808116134   -0.858980134849
 H   -4.898161951389    0.976571883866   -0.000000134849
 H   -4.843101951389   -0.621808116134    0.858979865151
CS   -0.420721951389   -0.035288116134   -0.000000134849
 N    4.860733348594    0.407690341898   -0.000000134849
 H    4.344779473556   -0.094898077355   -0.739207067762
 H    4.344778909662   -0.094891965186    0.739210560117
 C    6.310385963145    0.188633661511    0.000001375482
 H    6.644396115463    0.772894799532    0.858975897308
 H    6.699458608076   -0.825482304761    0.000005696423
 H    6.644396841305    0.772887758156   -0.858977653496
