15

 N   -3.107024555513   -0.260599913317   -0.000000134849
 H   -2.591074555513    0.241990086683    0.739209865151
 H   -2.591074555513    0.241990086683   -0.739210134849
 C   -4.556684555513   -0.041539913317   -0.000000134849
 H   -4.890694555513   -0.625799913317   -0.858980134849
 H   -4.945754555513    0.972580086683   -0.000000134849
 H   -4.890694555513   -0.625799913317    0.858979865151
CS   -0.468314555513   -0.039279913317   -0.000000134849
 N    5.112091044469    0.428772797056   -0.000000134849
 H    4.596137169431   -0.073815622197   -0.739207067762
 H    4.596136605537   -0.073809510027    0.739210560117
 C    6.561743659020    0.209716116669    0.000001375482
 H    6.895753811338    0.793977254690    0.858975897308
 H    6.950816303951   -0.804399849603    0.000005696423
 H    6.895754537180    0.793970213315   -0.858977653496
