15

 N   -3.122888756888   -0.261930512378   -0.000000134849
 H   -2.606938756888    0.240659487622    0.739209865151
 H   -2.606938756888    0.240659487622   -0.739210134849
 C   -4.572548756888   -0.042870512378   -0.000000134849
 H   -4.906558756888   -0.627130512378   -0.858980134849
 H   -4.961618756888    0.971249487622   -0.000000134849
 H   -4.906558756888   -0.627130512378    0.858979865151
CS   -0.484178756888   -0.040610512378   -0.000000134849
 N    5.195876943094    0.435800282109   -0.000000134849
 H    4.679923068056   -0.066788137144   -0.739207067762
 H    4.679922504162   -0.066782024974    0.739210560117
 C    6.645529557645    0.216743601722    0.000001375482
 H    6.979539709963    0.801004739743    0.858975897308
 H    7.034602202576   -0.797372364550    0.000005696423
 H    6.979540435805    0.800997698367   -0.858977653496
