15

 N   -3.281530770635   -0.275236502988   -0.000000134849
 H   -2.765580770635    0.227353497012    0.739209865151
 H   -2.765580770635    0.227353497012   -0.739210134849
 C   -4.731190770635   -0.056176502988   -0.000000134849
 H   -5.065200770635   -0.640436502988   -0.858980134849
 H   -5.120260770635    0.957943497012   -0.000000134849
 H   -5.065200770635   -0.640436502988    0.858979865151
CS   -0.642820770635   -0.053916502988   -0.000000134849
 N    6.033735929343    0.506075132637   -0.000000134849
 H    5.517782054306    0.003486713384   -0.739207067762
 H    5.517781490412    0.003492825554    0.739210560117
 C    7.483388543895    0.287018452250    0.000001375482
 H    7.817398696213    0.871279590271    0.858975897308
 H    7.872461188826   -0.727097514022    0.000005696423
 H    7.817399422055    0.871272548895   -0.858977653496
