15

 N   -3.297394972010   -0.276567102049   -0.000000134849
 H   -2.781444972010    0.226022897951    0.739209865151
 H   -2.781444972010    0.226022897951   -0.739210134849
 C   -4.747054972010   -0.057507102049   -0.000000134849
 H   -5.081064972010   -0.641767102049   -0.858980134849
 H   -5.136124972010    0.956612897951   -0.000000134849
 H   -5.081064972010   -0.641767102049    0.858979865151
CS   -0.658684972010   -0.055247102049   -0.000000134849
 N    6.117521827968    0.513102617690   -0.000000134849
 H    5.601567952931    0.010514198437   -0.739207067762
 H    5.601567389037    0.010520310606    0.739210560117
 C    7.567174442520    0.294045937303    0.000001375482
 H    7.901184594838    0.878307075324    0.858975897308
 H    7.956247087451   -0.720070028969    0.000005696423
 H    7.901185320679    0.878300033948   -0.858977653496
