15

 N   -3.360851777509   -0.281889498293   -0.000000134849
 H   -2.844901777509    0.220700501707    0.739209865151
 H   -2.844901777509    0.220700501707   -0.739210134849
 C   -4.810511777509   -0.062829498293   -0.000000134849
 H   -5.144521777509   -0.647089498293   -0.858980134849
 H   -5.199581777509    0.951290501707   -0.000000134849
 H   -5.144521777509   -0.647089498293    0.858979865151
CS   -0.722141777509   -0.060569498293   -0.000000134849
 N    6.452665422468    0.541212557901   -0.000000134849
 H    5.936711547431    0.038624138648   -0.739207067762
 H    5.936710983537    0.038630250818    0.739210560117
 C    7.902318037020    0.322155877514    0.000001375482
 H    8.236328189338    0.906417015535    0.858975897308
 H    8.291390681950   -0.691960088758    0.000005696423
 H    8.236328915179    0.906409974159   -0.858977653496
