15

 N   -3.376715978884   -0.283220097354   -0.000000134849
 H   -2.860765978884    0.219369902646    0.739209865151
 H   -2.860765978884    0.219369902646   -0.739210134849
 C   -4.826375978884   -0.064160097354   -0.000000134849
 H   -5.160385978884   -0.648420097354   -0.858980134849
 H   -5.215445978884    0.949959902646   -0.000000134849
 H   -5.160385978884   -0.648420097354    0.858979865151
CS   -0.738005978884   -0.061900097354   -0.000000134849
 N    6.536451321093    0.548240042954   -0.000000134849
 H    6.020497446056    0.045651623701   -0.739207067762
 H    6.020496882161    0.045657735870    0.739210560117
 C    7.986103935645    0.329183362567    0.000001375482
 H    8.320114087963    0.913444500588    0.858975897308
 H    8.375176580575   -0.684932603705    0.000005696423
 H    8.320114813804    0.913437459212   -0.858977653496
