15

 N   -3.408444381633   -0.285881295476   -0.000000134849
 H   -2.892494381633    0.216708704524    0.739209865151
 H   -2.892494381633    0.216708704524   -0.739210134849
 C   -4.858104381633   -0.066821295476   -0.000000134849
 H   -5.192114381633   -0.651081295476   -0.858980134849
 H   -5.247174381633    0.947298704524   -0.000000134849
 H   -5.192114381633   -0.651081295476    0.858979865151
CS   -0.769734381633   -0.064561295476   -0.000000134849
 N    6.704023118343    0.562295013060   -0.000000134849
 H    6.188069243306    0.059706593807   -0.739207067762
 H    6.188068679411    0.059712705976    0.739210560117
 C    8.153675732895    0.343238332673    0.000001375482
 H    8.487685885213    0.927499470693    0.858975897308
 H    8.542748377825   -0.670877633599    0.000005696423
 H    8.487686611054    0.927492429318   -0.858977653496
