15

 N   -3.456036985757   -0.289873092659   -0.000000134849
 H   -2.940086985757    0.212716907341    0.739209865151
 H   -2.940086985757    0.212716907341   -0.739210134849
 C   -4.905696985757   -0.070813092659   -0.000000134849
 H   -5.239706985757   -0.655073092659   -0.858980134849
 H   -5.294766985757    0.943306907341   -0.000000134849
 H   -5.239706985757   -0.655073092659    0.858979865151
CS   -0.817326985757   -0.068553092659   -0.000000134849
 N    6.955380814218    0.583377468218   -0.000000134849
 H    6.439426939181    0.080789048965   -0.739207067762
 H    6.439426375286    0.080795161134    0.739210560117
 C    8.405033428769    0.364320787831    0.000001375482
 H    8.739043581087    0.948581925852    0.858975897308
 H    8.794106073700   -0.649795178441    0.000005696423
 H    8.739044306929    0.948574884476   -0.858977653496
