15

 N   -3.487765388507   -0.292534290781   -0.000000134849
 H   -2.971815388507    0.210055709219    0.739209865151
 H   -2.971815388507    0.210055709219   -0.739210134849
 C   -4.937425388507   -0.073474290781   -0.000000134849
 H   -5.271435388507   -0.657734290781   -0.858980134849
 H   -5.326495388507    0.940645709219   -0.000000134849
 H   -5.271435388507   -0.657734290781    0.858979865151
CS   -0.849055388507   -0.071214290781   -0.000000134849
 N    7.122952611468    0.597432438324   -0.000000134849
 H    6.606998736431    0.094844019071   -0.739207067762
 H    6.606998172536    0.094850131240    0.739210560117
 C    8.572605226019    0.378375757937    0.000001375482
 H    8.906615378337    0.962636895957    0.858975897308
 H    8.961677870950   -0.635740208335    0.000005696423
 H    8.906616104179    0.962629854582   -0.858977653496
