15

 N   -3.567086395380   -0.299187286086   -0.000000134849
 H   -3.051136395380    0.203402713914    0.739209865151
 H   -3.051136395380    0.203402713914   -0.739210134849
 C   -5.016746395380   -0.080127286086   -0.000000134849
 H   -5.350756395380   -0.664387286086   -0.858980134849
 H   -5.405816395380    0.933992713914   -0.000000134849
 H   -5.350756395380   -0.664387286086    0.858979865151
CS   -0.928376395380   -0.077867286086   -0.000000134849
 N    7.541882104593    0.632569863588   -0.000000134849
 H    7.025928229555    0.129981444335   -0.739207067762
 H    7.025927665661    0.129987556504    0.739210560117
 C    8.991534719144    0.413513183201    0.000001375482
 H    9.325544871462    0.997774321221    0.858975897308
 H    9.380607364075   -0.600602783071    0.000005696423
 H    9.325545597304    0.997767279846   -0.858977653496
