15

 N   -3.582950596755   -0.300517885147   -0.000000134849
 H   -3.067000596755    0.202072114853    0.739209865151
 H   -3.067000596755    0.202072114853   -0.739210134849
 C   -5.032610596755   -0.081457885147   -0.000000134849
 H   -5.366620596755   -0.665717885147   -0.858980134849
 H   -5.421680596755    0.932662114853   -0.000000134849
 H   -5.366620596755   -0.665717885147    0.858979865151
CS   -0.944240596755   -0.079197885147   -0.000000134849
 N    7.625668003218    0.639597348640   -0.000000134849
 H    7.109714128180    0.137008929387   -0.739207067762
 H    7.109713564286    0.137015041557    0.739210560117
 C    9.075320617769    0.420540668253    0.000001375482
 H    9.409330770087    1.004801806274    0.858975897308
 H    9.464393262700   -0.593575298019    0.000005696423
 H    9.409331495929    1.004794764899   -0.858977653496
