15

 N   -3.646407402254   -0.305840281391   -0.000000134849
 H   -3.130457402254    0.196749718609    0.739209865151
 H   -3.130457402254    0.196749718609   -0.739210134849
 C   -5.096067402254   -0.086780281391   -0.000000134849
 H   -5.430077402254   -0.671040281391   -0.858980134849
 H   -5.485137402254    0.927339718609   -0.000000134849
 H   -5.430077402254   -0.671040281391    0.858979865151
CS   -1.007697402254   -0.084520281391   -0.000000134849
 N    7.960811597718    0.667707288852   -0.000000134849
 H    7.444857722680    0.165118869599   -0.739207067762
 H    7.444857158786    0.165124981768    0.739210560117
 C    9.410464212269    0.448650608465    0.000001375482
 H    9.744474364587    1.032911746485    0.858975897308
 H    9.799536857200   -0.565465357807    0.000005696423
 H    9.744475090429    1.032904705110   -0.858977653496
