15

 N   -3.709864207753   -0.311162677635   -0.000000134849
 H   -3.193914207753    0.191427322365    0.739209865151
 H   -3.193914207753    0.191427322365   -0.739210134849
 C   -5.159524207753   -0.092102677635   -0.000000134849
 H   -5.493534207753   -0.676362677635   -0.858980134849
 H   -5.548594207753    0.922017322365   -0.000000134849
 H   -5.493534207753   -0.676362677635    0.858979865151
CS   -1.071154207753   -0.089842677635   -0.000000134849
 N    8.295955192218    0.695817229063   -0.000000134849
 H    7.780001317180    0.193228809810   -0.739207067762
 H    7.780000753286    0.193234921979    0.739210560117
 C    9.745607806769    0.476760548676    0.000001375482
 H   10.079617959087    1.061021686697    0.858975897308
 H   10.134680451700   -0.537355417596    0.000005696423
 H   10.079618684929    1.061014645321   -0.858977653496
