15

 N   -3.725728409127   -0.312493276696   -0.000000134849
 H   -3.209778409127    0.190096723304    0.739209865151
 H   -3.209778409127    0.190096723304   -0.739210134849
 C   -5.175388409127   -0.093433276696   -0.000000134849
 H   -5.509398409127   -0.677693276696   -0.858980134849
 H   -5.564458409127    0.920686723304   -0.000000134849
 H   -5.509398409127   -0.677693276696    0.858979865151
CS   -1.087018409127   -0.091173276696   -0.000000134849
 N    8.379741090843    0.702844714116   -0.000000134849
 H    7.863787215805    0.200256294863   -0.739207067762
 H    7.863786651911    0.200262407032    0.739210560117
 C    9.829393705394    0.483788033729    0.000001375482
 H   10.163403857712    1.068049171749    0.858975897308
 H   10.218466350325   -0.530327932543    0.000005696423
 H   10.163404583554    1.068042130374   -0.858977653496
