15

 N   -3.773321013251   -0.316485073879   -0.000000134849
 H   -3.257371013251    0.186104926121    0.739209865151
 H   -3.257371013251    0.186104926121   -0.739210134849
 C   -5.222981013251   -0.097425073879   -0.000000134849
 H   -5.556991013251   -0.681685073879   -0.858980134849
 H   -5.612051013251    0.916694926121   -0.000000134849
 H   -5.556991013251   -0.681685073879    0.858979865151
CS   -1.134611013251   -0.095165073879   -0.000000134849
 N    8.631098786717    0.723927169274   -0.000000134849
 H    8.115144911680    0.221338750021   -0.739207067762
 H    8.115144347786    0.221344862191    0.739210560117
 C   10.080751401269    0.504870488887    0.000001375482
 H   10.414761553587    1.089131626908    0.858975897308
 H   10.469824046200   -0.509245477385    0.000005696423
 H   10.414762279429    1.089124585532   -0.858977653496
