17

 C   -1.788971469507    1.842336089523    0.000000000000
 H   -2.767901469507    2.337336089523    0.000000000000
 H   -1.671221469507    1.195426089523    0.873590000000
 H   -1.671221469507    1.195426089523   -0.873590000000
 C   -0.713281469507    2.911096089523    0.000000000000
 O   -0.869231469507    4.107116089523    0.000000000000
 O    0.517278530493    2.258836089523    0.000000000000
 H    1.266628530493    2.872286089523    0.000000000000
RB   -0.112531469507   -0.491403910477    0.000000000000
 O   -0.358077314976   -1.563647930173    0.000000000000
 H   -1.107430381917   -2.177102611439    0.000000000000
 C    0.872482735235   -2.215910661305    0.000000000000
 O    1.028428931026   -3.411926749666    0.000000000000
 C    1.948164394342   -1.147146600410    0.000000000000
 H    2.927091568977   -1.642144406829    0.000000000000
 H    1.830415218484   -0.500234865822   -0.873592524715
 H    1.830415218484   -0.500234865822    0.873592524715
