17

 C   -1.756285785999    1.985067189714    0.000000000000
 H   -2.735215785999    2.480067189714    0.000000000000
 H   -1.638535785999    1.338157189714    0.873590000000
 H   -1.638535785999    1.338157189714   -0.873590000000
 C   -0.680595785999    3.053827189714    0.000000000000
 O   -0.836545785999    4.249847189714    0.000000000000
 O    0.549964214001    2.401567189714    0.000000000000
 H    1.299314214001    3.015017189714    0.000000000000
RB   -0.079845785999   -0.348672810286    0.000000000000
 O   -0.437003379409   -1.908300475297    0.000000000000
 H   -1.186356446349   -2.521755156563    0.000000000000
 C    0.793556670802   -2.560563206430    0.000000000000
 O    0.949502866593   -3.756579294790    0.000000000000
 C    1.869238329909   -1.491799145534    0.000000000000
 H    2.848165504545   -1.986796951954    0.000000000000
 H    1.751489154051   -0.844887410947   -0.873592524715
 H    1.751489154051   -0.844887410947    0.873592524715
