17

 C   -1.749748649297    2.013613409752    0.000000000000
 H   -2.728678649297    2.508613409752    0.000000000000
 H   -1.631998649297    1.366703409752    0.873590000000
 H   -1.631998649297    1.366703409752   -0.873590000000
 C   -0.674058649297    3.082373409752    0.000000000000
 O   -0.830008649297    4.278393409752    0.000000000000
 O    0.556501350703    2.430113409752    0.000000000000
 H    1.305851350703    3.043563409752    0.000000000000
RB   -0.073308649297   -0.320126590248    0.000000000000
 O   -0.452788592296   -1.977230984322    0.000000000000
 H   -1.202141659236   -2.590685665588    0.000000000000
 C    0.777771457916   -2.629493715454    0.000000000000
 O    0.933717653707   -3.825509803815    0.000000000000
 C    1.853453117023   -1.560729654559    0.000000000000
 H    2.832380291658   -2.055727460979    0.000000000000
 H    1.735703941165   -0.913817919972   -0.873592524715
 H    1.735703941165   -0.913817919972    0.873592524715
