17

 C   -1.743211512595    2.042159629791    0.000000000000
 H   -2.722141512595    2.537159629791    0.000000000000
 H   -1.625461512595    1.395249629791    0.873590000000
 H   -1.625461512595    1.395249629791   -0.873590000000
 C   -0.667521512595    3.110919629791    0.000000000000
 O   -0.823471512595    4.306939629791    0.000000000000
 O    0.563038487405    2.458659629791    0.000000000000
 H    1.312388487405    3.072109629791    0.000000000000
RB   -0.066771512595   -0.291580370209    0.000000000000
 O   -0.468573805182   -2.046161493347    0.000000000000
 H   -1.217926872122   -2.659616174613    0.000000000000
 C    0.761986245029   -2.698424224479    0.000000000000
 O    0.917932440820   -3.894440312840    0.000000000000
 C    1.837667904136   -1.629660163584    0.000000000000
 H    2.816595078772   -2.124657970004    0.000000000000
 H    1.719918728278   -0.982748428997   -0.873592524715
 H    1.719918728278   -0.982748428997    0.873592524715
