17

 C   -1.736674375894    2.070705849829    0.000000000000
 H   -2.715604375894    2.565705849829    0.000000000000
 H   -1.618924375894    1.423795849829    0.873590000000
 H   -1.618924375894    1.423795849829   -0.873590000000
 C   -0.660984375894    3.139465849829    0.000000000000
 O   -0.816934375894    4.335485849829    0.000000000000
 O    0.569575624106    2.487205849829    0.000000000000
 H    1.318925624106    3.100655849829    0.000000000000
RB   -0.060234375894   -0.263034150171    0.000000000000
 O   -0.484359018069   -2.115092002372    0.000000000000
 H   -1.233712085009   -2.728546683638    0.000000000000
 C    0.746201032143   -2.767354733504    0.000000000000
 O    0.902147227934   -3.963370821865    0.000000000000
 C    1.821882691250   -1.698590672609    0.000000000000
 H    2.800809865885   -2.193588479029    0.000000000000
 H    1.704133515392   -1.051678938022   -0.873592524715
 H    1.704133515392   -1.051678938022    0.873592524715
