17

 C   -1.730137239192    2.099252069867    0.000000000000
 H   -2.709067239192    2.594252069867    0.000000000000
 H   -1.612387239192    1.452342069867    0.873590000000
 H   -1.612387239192    1.452342069867   -0.873590000000
 C   -0.654447239192    3.168012069867    0.000000000000
 O   -0.810397239192    4.364032069867    0.000000000000
 O    0.576112760808    2.515752069867    0.000000000000
 H    1.325462760808    3.129202069867    0.000000000000
RB   -0.053697239192   -0.234487930133    0.000000000000
 O   -0.500144230955   -2.184022511397    0.000000000000
 H   -1.249497297895   -2.797477192663    0.000000000000
 C    0.730415819256   -2.836285242529    0.000000000000
 O    0.886362015047   -4.032301330890    0.000000000000
 C    1.806097478363   -1.767521181634    0.000000000000
 H    2.785024652999   -2.262518988054    0.000000000000
 H    1.688348302505   -1.120609447047   -0.873592524715
 H    1.688348302505   -1.120609447047    0.873592524715
