17

 C   -1.717062965789    2.156344509944    0.000000000000
 H   -2.695992965789    2.651344509944    0.000000000000
 H   -1.599312965789    1.509434509944    0.873590000000
 H   -1.599312965789    1.509434509944   -0.873590000000
 C   -0.641372965789    3.225104509944    0.000000000000
 O   -0.797322965789    4.421124509944    0.000000000000
 O    0.589187034211    2.572844509944    0.000000000000
 H    1.338537034211    3.186294509944    0.000000000000
RB   -0.040622965789   -0.177395490056    0.000000000000
 O   -0.531714656728   -2.321883529447    0.000000000000
 H   -1.281067723668   -2.935338210713    0.000000000000
 C    0.698845393483   -2.974146260579    0.000000000000
 O    0.854791589274   -4.170162348940    0.000000000000
 C    1.774527052590   -1.905382199684    0.000000000000
 H    2.753454227226   -2.400380006104    0.000000000000
 H    1.656777876732   -1.258470465097   -0.873592524715
 H    1.656777876732   -1.258470465097    0.873592524715
