17

 C   -1.703988692386    2.213436950020    0.000000000000
 H   -2.682918692386    2.708436950020    0.000000000000
 H   -1.586238692386    1.566526950020    0.873590000000
 H   -1.586238692386    1.566526950020   -0.873590000000
 C   -0.628298692386    3.282196950020    0.000000000000
 O   -0.784248692386    4.478216950020    0.000000000000
 O    0.602261307614    2.629936950020    0.000000000000
 H    1.351611307614    3.243386950020    0.000000000000
RB   -0.027548692386   -0.120303049980    0.000000000000
 O   -0.563285082501   -2.459744547497    0.000000000000
 H   -1.312638149441   -3.073199228763    0.000000000000
 C    0.667274967710   -3.112007278629    0.000000000000
 O    0.823221163501   -4.308023366990    0.000000000000
 C    1.742956626817   -2.043243217734    0.000000000000
 H    2.721883801453   -2.538241024153    0.000000000000
 H    1.625207450959   -1.396331483146   -0.873592524715
 H    1.625207450959   -1.396331483146    0.873592524715
