17

 C   -1.690914418982    2.270529390097    0.000000000000
 H   -2.669844418982    2.765529390097    0.000000000000
 H   -1.573164418982    1.623619390097    0.873590000000
 H   -1.573164418982    1.623619390097   -0.873590000000
 C   -0.615224418982    3.339289390097    0.000000000000
 O   -0.771174418982    4.535309390097    0.000000000000
 O    0.615335581018    2.687029390097    0.000000000000
 H    1.364685581018    3.300479390097    0.000000000000
RB   -0.014474418982   -0.063210609903    0.000000000000
 O   -0.594855508274   -2.597605565547    0.000000000000
 H   -1.344208575214   -3.211060246813    0.000000000000
 C    0.635704541937   -3.249868296679    0.000000000000
 O    0.791650737728   -4.445884385040    0.000000000000
 C    1.711386201044   -2.181104235784    0.000000000000
 H    2.690313375680   -2.676102042203    0.000000000000
 H    1.593637025186   -1.534192501196   -0.873592524715
 H    1.593637025186   -1.534192501196    0.873592524715
