17

 C   -1.684377282281    2.299075610135    0.000000000000
 H   -2.663307282281    2.794075610135    0.000000000000
 H   -1.566627282281    1.652165610135    0.873590000000
 H   -1.566627282281    1.652165610135   -0.873590000000
 C   -0.608687282281    3.367835610135    0.000000000000
 O   -0.764637282281    4.563855610135    0.000000000000
 O    0.621872717719    2.715575610135    0.000000000000
 H    1.371222717719    3.329025610135    0.000000000000
RB   -0.007937282281   -0.034664389865    0.000000000000
 O   -0.610640721161   -2.666536074572    0.000000000000
 H   -1.359993788101   -3.279990755838    0.000000000000
 C    0.619919329051   -3.318798805704    0.000000000000
 O    0.775865524842   -4.514814894065    0.000000000000
 C    1.695600988158   -2.250034744809    0.000000000000
 H    2.674528162793   -2.745032551228    0.000000000000
 H    1.577851812299   -1.603123010221   -0.873592524715
 H    1.577851812299   -1.603123010221    0.873592524715
