17

 C   -1.677840145579    2.327621830174    0.000000000000
 H   -2.656770145579    2.822621830174    0.000000000000
 H   -1.560090145579    1.680711830174    0.873590000000
 H   -1.560090145579    1.680711830174   -0.873590000000
 C   -0.602150145579    3.396381830174    0.000000000000
 O   -0.758100145579    4.592401830174    0.000000000000
 O    0.628409854421    2.744121830174    0.000000000000
 H    1.377759854421    3.357571830174    0.000000000000
RB   -0.001400145579   -0.006118169826    0.000000000000
 O   -0.626425934047   -2.735466583597    0.000000000000
 H   -1.375779000987   -3.348921264863    0.000000000000
 C    0.604134116164   -3.387729314729    0.000000000000
 O    0.760080311955   -4.583745403090    0.000000000000
 C    1.679815775271   -2.318965253834    0.000000000000
 H    2.658742949907   -2.813963060253    0.000000000000
 H    1.562066599413   -1.672053519246   -0.873592524715
 H    1.562066599413   -1.672053519246    0.873592524715
