17

 C   -1.671303008877    2.356168050212    0.000000000000
 H   -2.650233008877    2.851168050212    0.000000000000
 H   -1.553553008877    1.709258050212    0.873590000000
 H   -1.553553008877    1.709258050212   -0.873590000000
 C   -0.595613008877    3.424928050212    0.000000000000
 O   -0.751563008877    4.620948050212    0.000000000000
 O    0.634946991123    2.772668050212    0.000000000000
 H    1.384296991123    3.386118050212    0.000000000000
RB    0.005136991123    0.022428050212    0.000000000000
 O   -0.642211146934   -2.804397092621    0.000000000000
 H   -1.391564213874   -3.417851773887    0.000000000000
 C    0.588348903278   -3.456659823754    0.000000000000
 O    0.744295099069   -4.652675912115    0.000000000000
 C    1.664030562385   -2.387895762858    0.000000000000
 H    2.642957737020   -2.882893569278    0.000000000000
 H    1.546281386526   -1.740984028271   -0.873592524715
 H    1.546281386526   -1.740984028271    0.873592524715
