17

 C   -1.651691598772    2.441806710327    0.000000000000
 H   -2.630621598772    2.936806710327    0.000000000000
 H   -1.533941598772    1.794896710327    0.873590000000
 H   -1.533941598772    1.794896710327   -0.873590000000
 C   -0.576001598772    3.510566710327    0.000000000000
 O   -0.731951598772    4.706586710327    0.000000000000
 O    0.654558401228    2.858306710327    0.000000000000
 H    1.403908401228    3.471756710327    0.000000000000
RB    0.024748401228    0.108066710327    0.000000000000
 O   -0.689566785593   -3.011188619696    0.000000000000
 H   -1.438919852533   -3.624643300962    0.000000000000
 C    0.540993264618   -3.663451350828    0.000000000000
 O    0.696939460409   -4.859467439189    0.000000000000
 C    1.616674923725   -2.594687289933    0.000000000000
 H    2.595602098361   -3.089685096353    0.000000000000
 H    1.498925747867   -1.947775555346   -0.873592524715
 H    1.498925747867   -1.947775555346    0.873592524715
