17

 C   -1.632080188667    2.527445370442    0.000000000000
 H   -2.611010188667    3.022445370442    0.000000000000
 H   -1.514330188667    1.880535370442    0.873590000000
 H   -1.514330188667    1.880535370442   -0.873590000000
 C   -0.556390188667    3.596205370442    0.000000000000
 O   -0.712340188667    4.792225370442    0.000000000000
 O    0.674169811333    2.943945370442    0.000000000000
 H    1.423519811333    3.557395370442    0.000000000000
RB    0.044359811333    0.193705370442    0.000000000000
 O   -0.736922424253   -3.217980146771    0.000000000000
 H   -1.486275491193   -3.831434828037    0.000000000000
 C    0.493637625959   -3.870242877903    0.000000000000
 O    0.649583821750   -5.066258966264    0.000000000000
 C    1.569319285066   -2.801478817008    0.000000000000
 H    2.548246459701   -3.296476623428    0.000000000000
 H    1.451570109207   -2.154567082421   -0.873592524715
 H    1.451570109207   -2.154567082421    0.873592524715
