17

 C   -1.605931641861    2.641630250595    0.000000000000
 H   -2.584861641861    3.136630250595    0.000000000000
 H   -1.488181641861    1.994720250595    0.873590000000
 H   -1.488181641861    1.994720250595   -0.873590000000
 C   -0.530241641861    3.710390250595    0.000000000000
 O   -0.686191641861    4.906410250595    0.000000000000
 O    0.700318358139    3.058130250595    0.000000000000
 H    1.449668358139    3.671580250595    0.000000000000
RB    0.070508358139    0.307890250595    0.000000000000
 O   -0.800063275799   -3.493702182871    0.000000000000
 H   -1.549416342739   -4.107156864137    0.000000000000
 C    0.430496774413   -4.145964914003    0.000000000000
 O    0.586442970204   -5.341981002364    0.000000000000
 C    1.506178433520   -3.077200853108    0.000000000000
 H    2.485105608155   -3.572198659527    0.000000000000
 H    1.388429257661   -2.430289118520   -0.873592524715
 H    1.388429257661   -2.430289118520    0.873592524715
