17

 C   -1.579783095054    2.755815130748    0.000000000000
 H   -2.558713095054    3.250815130748    0.000000000000
 H   -1.462033095054    2.108905130748    0.873590000000
 H   -1.462033095054    2.108905130748   -0.873590000000
 C   -0.504093095054    3.824575130748    0.000000000000
 O   -0.660043095054    5.020595130748    0.000000000000
 O    0.726466904946    3.172315130748    0.000000000000
 H    1.475816904946    3.785765130748    0.000000000000
RB    0.096656904946    0.422075130748    0.000000000000
 O   -0.863204127345   -3.769424218970    0.000000000000
 H   -1.612557194285   -4.382878900236    0.000000000000
 C    0.367355922867   -4.421686950102    0.000000000000
 O    0.523302118658   -5.617703038463    0.000000000000
 C    1.443037581974   -3.352922889207    0.000000000000
 H    2.421964756609   -3.847920695627    0.000000000000
 H    1.325288406115   -2.706011154620   -0.873592524715
 H    1.325288406115   -2.706011154620    0.873592524715
