17

 C   -1.534023138143    2.955638671016    0.000000000000
 H   -2.512953138143    3.450638671016    0.000000000000
 H   -1.416273138143    2.308728671016    0.873590000000
 H   -1.416273138143    2.308728671016   -0.873590000000
 C   -0.458333138143    4.024398671016    0.000000000000
 O   -0.614283138143    5.220418671016    0.000000000000
 O    0.772226861857    3.372138671016    0.000000000000
 H    1.521576861857    3.985588671016    0.000000000000
RB    0.142416861857    0.621898671016    0.000000000000
 O   -0.973700617550   -4.251937782145    0.000000000000
 H   -1.723053684491   -4.865392463411    0.000000000000
 C    0.256859432661   -4.904200513277    0.000000000000
 O    0.412805628452   -6.100216601638    0.000000000000
 C    1.332541091768   -3.835436452382    0.000000000000
 H    2.311468266403   -4.330434258802    0.000000000000
 H    1.214791915910   -3.188524717794   -0.873592524715
 H    1.214791915910   -3.188524717794    0.873592524715
