17

 C   -1.527486001441    2.984184891054    0.000000000000
 H   -2.506416001441    3.479184891054    0.000000000000
 H   -1.409736001441    2.337274891054    0.873590000000
 H   -1.409736001441    2.337274891054   -0.873590000000
 C   -0.451796001441    4.052944891054    0.000000000000
 O   -0.607746001441    5.248964891054    0.000000000000
 O    0.778763998559    3.400684891054    0.000000000000
 H    1.528113998559    4.014134891054    0.000000000000
RB    0.148953998559    0.650444891054    0.000000000000
 O   -0.989485830437   -4.320868291170    0.000000000000
 H   -1.738838897377   -4.934322972436    0.000000000000
 C    0.241074219775   -4.973131022302    0.000000000000
 O    0.397020415566   -6.169147110663    0.000000000000
 C    1.316755878882   -3.904366961407    0.000000000000
 H    2.295683053517   -4.399364767826    0.000000000000
 H    1.199006703023   -3.257455226819   -0.873592524715
 H    1.199006703023   -3.257455226819    0.873592524715
