17

 C   -1.507874591336    3.069823551169    0.000000000000
 H   -2.486804591336    3.564823551169    0.000000000000
 H   -1.390124591336    2.422913551169    0.873590000000
 H   -1.390124591336    2.422913551169   -0.873590000000
 C   -0.432184591336    4.138583551169    0.000000000000
 O   -0.588134591336    5.334603551169    0.000000000000
 O    0.798375408664    3.486323551169    0.000000000000
 H    1.547725408664    4.099773551169    0.000000000000
RB    0.168565408664    0.736083551169    0.000000000000
 O   -1.036841469096   -4.527659818245    0.000000000000
 H   -1.786194536037   -5.141114499511    0.000000000000
 C    0.193718581115   -5.179922549377    0.000000000000
 O    0.349664776906   -6.375938637738    0.000000000000
 C    1.269400240222   -4.111158488482    0.000000000000
 H    2.248327414857   -4.606156294901    0.000000000000
 H    1.151651064364   -3.464246753894   -0.873592524715
 H    1.151651064364   -3.464246753894    0.873592524715
