17

 C   -1.494800317933    3.126915991246    0.000000000000
 H   -2.473730317933    3.621915991246    0.000000000000
 H   -1.377050317933    2.480005991246    0.873590000000
 H   -1.377050317933    2.480005991246   -0.873590000000
 C   -0.419110317933    4.195675991246    0.000000000000
 O   -0.575060317933    5.391695991246    0.000000000000
 O    0.811449682067    3.543415991246    0.000000000000
 H    1.560799682067    4.156865991246    0.000000000000
RB    0.181639682067    0.793175991246    0.000000000000
 O   -1.068411894869   -4.665520836294    0.000000000000
 H   -1.817764961810   -5.278975517560    0.000000000000
 C    0.162148155342   -5.317783567426    0.000000000000
 O    0.318094351133   -6.513799655787    0.000000000000
 C    1.237829814449   -4.249019506531    0.000000000000
 H    2.216756989084   -4.744017312951    0.000000000000
 H    1.120080638591   -3.602107771944   -0.873592524715
 H    1.120080638591   -3.602107771944    0.873592524715
