17

 C   -1.475188907828    3.212554651361    0.000000000000
 H   -2.454118907828    3.707554651361    0.000000000000
 H   -1.357438907828    2.565644651361    0.873590000000
 H   -1.357438907828    2.565644651361   -0.873590000000
 C   -0.399498907828    4.281314651361    0.000000000000
 O   -0.555448907828    5.477334651361    0.000000000000
 O    0.831061092172    3.629054651361    0.000000000000
 H    1.580411092172    4.242504651361    0.000000000000
RB    0.201251092172    0.878814651361    0.000000000000
 O   -1.115767533529   -4.872312363369    0.000000000000
 H   -1.865120600469   -5.485767044635    0.000000000000
 C    0.114792516682   -5.524575094501    0.000000000000
 O    0.270738712474   -6.720591182862    0.000000000000
 C    1.190474175789   -4.455811033606    0.000000000000
 H    2.169401350425   -4.950808840026    0.000000000000
 H    1.072724999931   -3.808899299019   -0.873592524715
 H    1.072724999931   -3.808899299019    0.873592524715
