17

 C   -1.468651771126    3.241100871399    0.000000000000
 H   -2.447581771126    3.736100871399    0.000000000000
 H   -1.350901771126    2.594190871399    0.873590000000
 H   -1.350901771126    2.594190871399   -0.873590000000
 C   -0.392961771126    4.309860871399    0.000000000000
 O   -0.548911771126    5.505880871399    0.000000000000
 O    0.837598228874    3.657600871399    0.000000000000
 H    1.586948228874    4.271050871399    0.000000000000
RB    0.207788228874    0.907360871399    0.000000000000
 O   -1.131552746415   -4.941242872394    0.000000000000
 H   -1.880905813356   -5.554697553660    0.000000000000
 C    0.099007303796   -5.593505603526    0.000000000000
 O    0.254953499587   -6.789521691887    0.000000000000
 C    1.174688962903   -4.524741542631    0.000000000000
 H    2.153616137538   -5.019739349051    0.000000000000
 H    1.056939787045   -3.877829808044   -0.873592524715
 H    1.056939787045   -3.877829808044    0.873592524715
