17

 C   -1.455577497723    3.298193311476    0.000000000000
 H   -2.434507497723    3.793193311476    0.000000000000
 H   -1.337827497723    2.651283311476    0.873590000000
 H   -1.337827497723    2.651283311476   -0.873590000000
 C   -0.379887497723    4.366953311476    0.000000000000
 O   -0.535837497723    5.562973311476    0.000000000000
 O    0.850672502277    3.714693311476    0.000000000000
 H    1.600022502277    4.328143311476    0.000000000000
RB    0.220862502277    0.964453311476    0.000000000000
 O   -1.163123172188   -5.079103890444    0.000000000000
 H   -1.912476239129   -5.692558571710    0.000000000000
 C    0.067436878023   -5.731366621576    0.000000000000
 O    0.223383073814   -6.927382709937    0.000000000000
 C    1.143118537130   -4.662602560681    0.000000000000
 H    2.122045711765   -5.157600367101    0.000000000000
 H    1.025369361272   -4.015690826094   -0.873592524715
 H    1.025369361272   -4.015690826094    0.873592524715
