17

 C   -1.449040361022    3.326739531514    0.000000000000
 H   -2.427970361022    3.821739531514    0.000000000000
 H   -1.331290361022    2.679829531514    0.873590000000
 H   -1.331290361022    2.679829531514   -0.873590000000
 C   -0.373350361022    4.395499531514    0.000000000000
 O   -0.529300361022    5.591519531514    0.000000000000
 O    0.857209638978    3.743239531514    0.000000000000
 H    1.606559638978    4.356689531514    0.000000000000
RB    0.227399638978    0.992999531514    0.000000000000
 O   -1.178908385075   -5.148034399469    0.000000000000
 H   -1.928261452015   -5.761489080735    0.000000000000
 C    0.051651665136   -5.800297130601    0.000000000000
 O    0.207597860928   -6.996313218962    0.000000000000
 C    1.127333324243   -4.731533069706    0.000000000000
 H    2.106260498879   -5.226530876126    0.000000000000
 H    1.009584148385   -4.084621335118   -0.873592524715
 H    1.009584148385   -4.084621335118    0.873592524715
