17

 C   -1.442503224320    3.355285751552    0.000000000000
 H   -2.421433224320    3.850285751552    0.000000000000
 H   -1.324753224320    2.708375751552    0.873590000000
 H   -1.324753224320    2.708375751552   -0.873590000000
 C   -0.366813224320    4.424045751552    0.000000000000
 O   -0.522763224320    5.620065751552    0.000000000000
 O    0.863746775680    3.771785751552    0.000000000000
 H    1.613096775680    4.385235751552    0.000000000000
RB    0.233936775680    1.021545751552    0.000000000000
 O   -1.194693597961   -5.216964908494    0.000000000000
 H   -1.944046664902   -5.830419589760    0.000000000000
 C    0.035866452250   -5.869227639626    0.000000000000
 O    0.191812648041   -7.065243727987    0.000000000000
 C    1.111548111357   -4.800463578731    0.000000000000
 H    2.090475285992   -5.295461385150    0.000000000000
 H    0.993798935499   -4.153551844143   -0.873592524715
 H    0.993798935499   -4.153551844143    0.873592524715
