17

 C   -1.435966087618    3.383831971591    0.000000000000
 H   -2.414896087618    3.878831971591    0.000000000000
 H   -1.318216087618    2.736921971591    0.873590000000
 H   -1.318216087618    2.736921971591   -0.873590000000
 C   -0.360276087618    4.452591971591    0.000000000000
 O   -0.516226087618    5.648611971591    0.000000000000
 O    0.870283912382    3.800331971591    0.000000000000
 H    1.619633912382    4.413781971591    0.000000000000
RB    0.240473912382    1.050091971591    0.000000000000
 O   -1.210478810848   -5.285895417519    0.000000000000
 H   -1.959831877788   -5.899350098785    0.000000000000
 C    0.020081239363   -5.938158148651    0.000000000000
 O    0.176027435155   -7.134174237012    0.000000000000
 C    1.095762898470   -4.869394087756    0.000000000000
 H    2.074690073106   -5.364391894175    0.000000000000
 H    0.978013722612   -4.222482353168   -0.873592524715
 H    0.978013722612   -4.222482353168    0.873592524715
