17

 C   -1.429428950917    3.412378191629    0.000000000000
 H   -2.408358950917    3.907378191629    0.000000000000
 H   -1.311678950917    2.765468191629    0.873590000000
 H   -1.311678950917    2.765468191629   -0.873590000000
 C   -0.353738950917    4.481138191629    0.000000000000
 O   -0.509688950917    5.677158191629    0.000000000000
 O    0.876821049083    3.828878191629    0.000000000000
 H    1.626171049083    4.442328191629    0.000000000000
RB    0.247011049083    1.078638191629    0.000000000000
 O   -1.226264023734   -5.354825926544    0.000000000000
 H   -1.975617090675   -5.968280607810    0.000000000000
 C    0.004296026477   -6.007088657676    0.000000000000
 O    0.160242222268   -7.203104746037    0.000000000000
 C    1.079977685584   -4.938324596781    0.000000000000
 H    2.058904860219   -5.433322403200    0.000000000000
 H    0.962228509726   -4.291412862193   -0.873592524715
 H    0.962228509726   -4.291412862193    0.873592524715
