17

 C   -1.409817540812    3.498016851744    0.000000000000
 H   -2.388747540812    3.993016851744    0.000000000000
 H   -1.292067540812    2.851106851744    0.873590000000
 H   -1.292067540812    2.851106851744   -0.873590000000
 C   -0.334127540812    4.566776851744    0.000000000000
 O   -0.490077540812    5.762796851744    0.000000000000
 O    0.896432459188    3.914516851744    0.000000000000
 H    1.645782459188    4.527966851744    0.000000000000
RB    0.266622459188    1.164276851744    0.000000000000
 O   -1.273619662394   -5.561617453618    0.000000000000
 H   -2.022972729334   -6.175072134884    0.000000000000
 C   -0.043059612183   -6.213880184751    0.000000000000
 O    0.112886583608   -7.409896273111    0.000000000000
 C    1.032622046924   -5.145116123855    0.000000000000
 H    2.011549221560   -5.640113930275    0.000000000000
 H    0.914872871066   -4.498204389268   -0.873592524715
 H    0.914872871066   -4.498204389268    0.873592524715
