17

 C   -1.377131857304    3.640747951935    0.000000000000
 H   -2.356061857304    4.135747951935    0.000000000000
 H   -1.259381857304    2.993837951935    0.873590000000
 H   -1.259381857304    2.993837951935   -0.873590000000
 C   -0.301441857304    4.709507951935    0.000000000000
 O   -0.457391857304    5.905527951935    0.000000000000
 O    0.929118142696    4.057247951935    0.000000000000
 H    1.678468142696    4.670697951935    0.000000000000
RB    0.299308142696    1.307007951935    0.000000000000
 O   -1.352545726826   -5.906269998743    0.000000000000
 H   -2.101898793767   -6.519724680009    0.000000000000
 C   -0.121985676615   -6.558532729875    0.000000000000
 O    0.033960519176   -7.754548818236    0.000000000000
 C    0.953695982492   -5.489768668980    0.000000000000
 H    1.932623157127   -5.984766475400    0.000000000000
 H    0.835946806634   -4.842856934393   -0.873592524715
 H    0.835946806634   -4.842856934393    0.873592524715
