17

 C   -1.364057583900    3.697840392012    0.000000000000
 H   -2.342987583900    4.192840392012    0.000000000000
 H   -1.246307583900    3.050930392012    0.873590000000
 H   -1.246307583900    3.050930392012   -0.873590000000
 C   -0.288367583900    4.766600392012    0.000000000000
 O   -0.444317583900    5.962620392012    0.000000000000
 O    0.942192416100    4.114340392012    0.000000000000
 H    1.691542416100    4.727790392012    0.000000000000
RB    0.312382416100    1.364100392012    0.000000000000
 O   -1.384116152599   -6.044131016793    0.000000000000
 H   -2.133469219540   -6.657585698059    0.000000000000
 C   -0.153556102388   -6.696393747925    0.000000000000
 O    0.002390093403   -7.892409836286    0.000000000000
 C    0.922125556719   -5.627629687030    0.000000000000
 H    1.901052731354   -6.122627493450    0.000000000000
 H    0.804376380861   -4.980717952442   -0.873592524715
 H    0.804376380861   -4.980717952442    0.873592524715
