17

 C   -1.350983310497    3.754932832088    0.000000000000
 H   -2.329913310497    4.249932832088    0.000000000000
 H   -1.233233310497    3.108022832088    0.873590000000
 H   -1.233233310497    3.108022832088   -0.873590000000
 C   -0.275293310497    4.823692832088    0.000000000000
 O   -0.431243310497    6.019712832088    0.000000000000
 O    0.955266689503    4.171432832088    0.000000000000
 H    1.704616689503    4.784882832088    0.000000000000
RB    0.325456689503    1.421192832088    0.000000000000
 O   -1.415686578372   -6.181992034843    0.000000000000
 H   -2.165039645313   -6.795446716109    0.000000000000
 C   -0.185126528161   -6.834254765975    0.000000000000
 O   -0.029180332370   -8.030270854336    0.000000000000
 C    0.890555130946   -5.765490705080    0.000000000000
 H    1.869482305581   -6.260488511499    0.000000000000
 H    0.772805955088   -5.118578970492   -0.873592524715
 H    0.772805955088   -5.118578970492    0.873592524715
