17

 C   -1.337909037094    3.812025272165    0.000000000000
 H   -2.316839037094    4.307025272165    0.000000000000
 H   -1.220159037094    3.165115272165    0.873590000000
 H   -1.220159037094    3.165115272165   -0.873590000000
 C   -0.262219037094    4.880785272165    0.000000000000
 O   -0.418169037094    6.076805272165    0.000000000000
 O    0.968340962906    4.228525272165    0.000000000000
 H    1.717690962906    4.841975272165    0.000000000000
RB    0.338530962906    1.478285272165    0.000000000000
 O   -1.447257004145   -6.319853052893    0.000000000000
 H   -2.196610071086   -6.933307734159    0.000000000000
 C   -0.216696953934   -6.972115784025    0.000000000000
 O   -0.060750758143   -8.168131872386    0.000000000000
 C    0.858984705173   -5.903351723130    0.000000000000
 H    1.837911879808   -6.398349529549    0.000000000000
 H    0.741235529315   -5.256439988542   -0.873592524715
 H    0.741235529315   -5.256439988542    0.873592524715
