17

 C   -1.331371900392    3.840571492203    0.000000000000
 H   -2.310301900392    4.335571492203    0.000000000000
 H   -1.213621900392    3.193661492203    0.873590000000
 H   -1.213621900392    3.193661492203   -0.873590000000
 C   -0.255681900392    4.909331492203    0.000000000000
 O   -0.411631900392    6.105351492203    0.000000000000
 O    0.974878099608    4.257071492203    0.000000000000
 H    1.724228099608    4.870521492203    0.000000000000
RB    0.345068099608    1.506831492203    0.000000000000
 O   -1.463042217032   -6.388783561918    0.000000000000
 H   -2.212395283972   -7.002238243184    0.000000000000
 C   -0.232482166821   -7.041046293050    0.000000000000
 O   -0.076535971030   -8.237062381411    0.000000000000
 C    0.843199492286   -5.972282232155    0.000000000000
 H    1.822126666922   -6.467280038574    0.000000000000
 H    0.725450316428   -5.325370497567   -0.873592524715
 H    0.725450316428   -5.325370497567    0.873592524715
