17

 C   -1.324834763690    3.869117712242    0.000000000000
 H   -2.303764763690    4.364117712242    0.000000000000
 H   -1.207084763690    3.222207712242    0.873590000000
 H   -1.207084763690    3.222207712242   -0.873590000000
 C   -0.249144763690    4.937877712242    0.000000000000
 O   -0.405094763690    6.133897712242    0.000000000000
 O    0.981415236310    4.285617712242    0.000000000000
 H    1.730765236310    4.899067712242    0.000000000000
RB    0.351605236310    1.535377712242    0.000000000000
 O   -1.478827429918   -6.457714070942    0.000000000000
 H   -2.228180496859   -7.071168752208    0.000000000000
 C   -0.248267379707   -7.109976802075    0.000000000000
 O   -0.092321183916   -8.305992890436    0.000000000000
 C    0.827414279400   -6.041212741179    0.000000000000
 H    1.806341454035   -6.536210547599    0.000000000000
 H    0.709665103542   -5.394301006592   -0.873592524715
 H    0.709665103542   -5.394301006592    0.873592524715
