17

 C   -1.311760490287    3.926210152318    0.000000000000
 H   -2.290690490287    4.421210152318    0.000000000000
 H   -1.194010490287    3.279300152318    0.873590000000
 H   -1.194010490287    3.279300152318   -0.873590000000
 C   -0.236070490287    4.994970152318    0.000000000000
 O   -0.392020490287    6.190990152318    0.000000000000
 O    0.994489509713    4.342710152318    0.000000000000
 H    1.743839509713    4.956160152318    0.000000000000
RB    0.364679509713    1.592470152318    0.000000000000
 O   -1.510397855692   -6.595575088992    0.000000000000
 H   -2.259750922632   -7.209029770258    0.000000000000
 C   -0.279837805480   -7.247837820124    0.000000000000
 O   -0.123891609689   -8.443853908485    0.000000000000
 C    0.795843853627   -6.179073759229    0.000000000000
 H    1.774771028262   -6.674071565649    0.000000000000
 H    0.678094677769   -5.532162024642   -0.873592524715
 H    0.678094677769   -5.532162024642    0.873592524715
