17

 C   -1.305223353585    3.954756372357    0.000000000000
 H   -2.284153353585    4.449756372357    0.000000000000
 H   -1.187473353585    3.307846372357    0.873590000000
 H   -1.187473353585    3.307846372357   -0.873590000000
 C   -0.229533353585    5.023516372357    0.000000000000
 O   -0.385483353585    6.219536372357    0.000000000000
 O    1.001026646415    4.371256372357    0.000000000000
 H    1.750376646415    4.984706372357    0.000000000000
RB    0.371216646415    1.621016372357    0.000000000000
 O   -1.526183068578   -6.664505598017    0.000000000000
 H   -2.275536135518   -7.277960279283    0.000000000000
 C   -0.295623018367   -7.316768329149    0.000000000000
 O   -0.139676822576   -8.512784417510    0.000000000000
 C    0.780058640740   -6.248004268254    0.000000000000
 H    1.758985815376   -6.743002074674    0.000000000000
 H    0.662309464882   -5.601092533667   -0.873592524715
 H    0.662309464882   -5.601092533667    0.873592524715
