17

 C   -1.298686216884    3.983302592395    0.000000000000
 H   -2.277616216884    4.478302592395    0.000000000000
 H   -1.180936216884    3.336392592395    0.873590000000
 H   -1.180936216884    3.336392592395   -0.873590000000
 C   -0.222996216884    5.052062592395    0.000000000000
 O   -0.378946216884    6.248082592395    0.000000000000
 O    1.007563783116    4.399802592395    0.000000000000
 H    1.756913783116    5.013252592395    0.000000000000
RB    0.377753783116    1.649562592395    0.000000000000
 O   -1.541968281465   -6.733436107042    0.000000000000
 H   -2.291321348405   -7.346890788308    0.000000000000
 C   -0.311408231253   -7.385698838174    0.000000000000
 O   -0.155462035462   -8.581714926535    0.000000000000
 C    0.764273427854   -6.316934777279    0.000000000000
 H    1.743200602489   -6.811932583699    0.000000000000
 H    0.646524251996   -5.670023042692   -0.873592524715
 H    0.646524251996   -5.670023042692    0.873592524715
