17

 C   -1.279074806779    4.068941252510    0.000000000000
 H   -2.258004806779    4.563941252510    0.000000000000
 H   -1.161324806779    3.422031252510    0.873590000000
 H   -1.161324806779    3.422031252510   -0.873590000000
 C   -0.203384806779    5.137701252510    0.000000000000
 O   -0.359334806779    6.333721252510    0.000000000000
 O    1.027175193221    4.485441252510    0.000000000000
 H    1.776525193221    5.098891252510    0.000000000000
RB    0.397365193221    1.735201252510    0.000000000000
 O   -1.589323920124   -6.940227634117    0.000000000000
 H   -2.338676987064   -7.553682315383    0.000000000000
 C   -0.358763869913   -7.592490365249    0.000000000000
 O   -0.202817674122   -8.788506453610    0.000000000000
 C    0.716917789194   -6.523726304354    0.000000000000
 H    1.695844963830   -7.018724110774    0.000000000000
 H    0.599168613336   -5.876814569767   -0.873592524715
 H    0.599168613336   -5.876814569767    0.873592524715
