17

 C   -1.272537670077    4.097487472548    0.000000000000
 H   -2.251467670077    4.592487472548    0.000000000000
 H   -1.154787670077    3.450577472548    0.873590000000
 H   -1.154787670077    3.450577472548   -0.873590000000
 C   -0.196847670077    5.166247472548    0.000000000000
 O   -0.352797670077    6.362267472548    0.000000000000
 O    1.033712329923    4.513987472548    0.000000000000
 H    1.783062329923    5.127437472548    0.000000000000
RB    0.403902329923    1.763747472548    0.000000000000
 O   -1.605109133011   -7.009158143142    0.000000000000
 H   -2.354462199951   -7.622612824408    0.000000000000
 C   -0.374549082799   -7.661420874274    0.000000000000
 O   -0.218602887008   -8.857436962635    0.000000000000
 C    0.701132576308   -6.592656813379    0.000000000000
 H    1.680059750943   -7.087654619799    0.000000000000
 H    0.583383400450   -5.945745078791   -0.873592524715
 H    0.583383400450   -5.945745078791    0.873592524715
