17

 C   -1.239851986569    4.240218572739    0.000000000000
 H   -2.218781986569    4.735218572739    0.000000000000
 H   -1.122101986569    3.593308572739    0.873590000000
 H   -1.122101986569    3.593308572739   -0.873590000000
 C   -0.164161986569    5.308978572739    0.000000000000
 O   -0.320111986569    6.504998572739    0.000000000000
 O    1.066398013431    4.656718572739    0.000000000000
 H    1.815748013431    5.270168572739    0.000000000000
RB    0.436588013431    1.906478572739    0.000000000000
 O   -1.684035197443   -7.353810688266    0.000000000000
 H   -2.433388264383   -7.967265369532    0.000000000000
 C   -0.453475147232   -8.006073419399    0.000000000000
 O   -0.297528951441   -9.202089507760    0.000000000000
 C    0.622206511875   -6.937309358504    0.000000000000
 H    1.601133686511   -7.432307164923    0.000000000000
 H    0.504457336017   -6.290397623916   -0.873592524715
 H    0.504457336017   -6.290397623916    0.873592524715
