17

 C   -1.233314849867    4.268764792778    0.000000000000
 H   -2.212244849867    4.763764792778    0.000000000000
 H   -1.115564849867    3.621854792778    0.873590000000
 H   -1.115564849867    3.621854792778   -0.873590000000
 C   -0.157624849867    5.337524792778    0.000000000000
 O   -0.313574849867    6.533544792778    0.000000000000
 O    1.072935150133    4.685264792778    0.000000000000
 H    1.822285150133    5.298714792778    0.000000000000
RB    0.443125150133    1.935024792778    0.000000000000
 O   -1.699820410330   -7.422741197291    0.000000000000
 H   -2.449173477270   -8.036195878557    0.000000000000
 C   -0.469260360118   -8.075003928423    0.000000000000
 O   -0.313314164327   -9.271020016784    0.000000000000
 C    0.606421298989   -7.006239867528    0.000000000000
 H    1.585348473624   -7.501237673948    0.000000000000
 H    0.488672123130   -6.359328132941   -0.873592524715
 H    0.488672123130   -6.359328132941    0.873592524715
