17

 C   -1.226777713166    4.297311012816    0.000000000000
 H   -2.205707713166    4.792311012816    0.000000000000
 H   -1.109027713166    3.650401012816    0.873590000000
 H   -1.109027713166    3.650401012816   -0.873590000000
 C   -0.151087713166    5.366071012816    0.000000000000
 O   -0.307037713166    6.562091012816    0.000000000000
 O    1.079472286834    4.713811012816    0.000000000000
 H    1.828822286834    5.327261012816    0.000000000000
RB    0.449662286834    1.963571012816    0.000000000000
 O   -1.715605623216   -7.491671706316    0.000000000000
 H   -2.464958690156   -8.105126387582    0.000000000000
 C   -0.485045573005   -8.143934437448    0.000000000000
 O   -0.329099377214   -9.339950525809    0.000000000000
 C    0.590636086102   -7.075170376553    0.000000000000
 H    1.569563260738   -7.570168182973    0.000000000000
 H    0.472886910244   -6.428258641966   -0.873592524715
 H    0.472886910244   -6.428258641966    0.873592524715
