17

 C   -1.220240576464    4.325857232854    0.000000000000
 H   -2.199170576464    4.820857232854    0.000000000000
 H   -1.102490576464    3.678947232854    0.873590000000
 H   -1.102490576464    3.678947232854   -0.873590000000
 C   -0.144550576464    5.394617232854    0.000000000000
 O   -0.300500576464    6.590637232854    0.000000000000
 O    1.086009423536    4.742357232854    0.000000000000
 H    1.835359423536    5.355807232854    0.000000000000
RB    0.456199423536    1.992117232854    0.000000000000
 O   -1.731390836103   -7.560602215341    0.000000000000
 H   -2.480743903043   -8.174056896607    0.000000000000
 C   -0.500830785891   -8.212864946473    0.000000000000
 O   -0.344884590100   -9.408881034834    0.000000000000
 C    0.574850873216   -7.144100885578    0.000000000000
 H    1.553778047851   -7.639098691998    0.000000000000
 H    0.457101697357   -6.497189150991   -0.873592524715
 H    0.457101697357   -6.497189150991    0.873592524715
