16

 N   -1.921764023350   -0.562733886450    0.485369971561
 C   -0.689638291083   -1.193024166458    0.486324931869
 N   -0.419497354957   -2.513909641426    0.482860742922
 C    0.908631813506   -2.732103534176    0.498428171585
 H    1.222440096476   -3.778782266666    0.501807742276
 N    1.920981256547   -1.824122577035    0.512399441860
 C    1.608764512640   -0.513301493786    0.507753037960
 N    2.616391467442    0.411197143519    0.465931201029
 H    3.547843004829    0.080667034767    0.688389135162
 H    2.383653961415    1.371167898558    0.690741446469
 C    0.243263671766   -0.136607639919    0.498981950245
 N   -0.380265639425    1.102358060711    0.508860159263
 C   -1.680191126582    0.794278672350    0.500405306105
 H   -2.490244655369    1.520859473452    0.504453443968
 H   -2.825553700520   -1.022991010284    0.477766915628
RB   -0.376507326821    1.114613820038   -0.791076635912
