16

 N   -1.922656817652   -0.565645265373    0.794172428024
 C   -0.690531085385   -1.195935545381    0.795127388332
 N   -0.420390149259   -2.516821020349    0.791663199385
 C    0.907739019204   -2.735014913099    0.807230628048
 H    1.221547302174   -3.781693645589    0.810610198739
 N    1.920088462245   -1.827033955958    0.821201898323
 C    1.607871718338   -0.516212872709    0.816555494423
 N    2.615498673140    0.408285764596    0.774733657492
 H    3.546950210527    0.077755655844    0.997191591625
 H    2.382761167113    1.368256519635    0.999543902932
 C    0.242370877464   -0.139519018842    0.807784406708
 N   -0.381158433727    1.099446681788    0.817662615726
 C   -1.681083920884    0.791367293427    0.809207762568
 H   -2.491137449671    1.517948094529    0.813255900431
 H   -2.826446494822   -1.025902389207    0.786569372091
RB   -0.375087313367    1.119244446856   -1.282235284172
