16

 N   -1.922991615516   -0.566737032469    0.909973349198
 C   -0.690865883249   -1.197027312477    0.910928309506
 N   -0.420724947123   -2.517912787445    0.907464120559
 C    0.907404221340   -2.736106680195    0.923031549222
 H    1.221212504310   -3.782785412685    0.926411119913
 N    1.919753664381   -1.828125723054    0.937002819497
 C    1.607536920474   -0.517304639805    0.932356415597
 N    2.615163875276    0.407193997500    0.890534578666
 H    3.546615412663    0.076663888748    1.112992512799
 H    2.382426369249    1.367164752539    1.115344824106
 C    0.242036079600   -0.140610785938    0.923585327882
 N   -0.381493231591    1.098354914692    0.933463536900
 C   -1.681418718748    0.790275526331    0.925008683742
 H   -2.491472247535    1.516856327433    0.929056821605
 H   -2.826781292686   -1.026994156303    0.902370293265
RB   -0.374554808322    1.120980931912   -1.466419777269
