16

 N   -1.923326413379   -0.567828799565    1.025774270371
 C   -0.691200681112   -1.198119079573    1.026729230679
 N   -0.421059744986   -2.519004554541    1.023265041732
 C    0.907069423477   -2.737198447291    1.038832470395
 H    1.220877706447   -3.783877179781    1.042212041086
 N    1.919418866518   -1.829217490150    1.052803740670
 C    1.607202122611   -0.518396406901    1.048157336770
 N    2.614829077413    0.406102230404    1.006335499839
 H    3.546280614800    0.075572121652    1.228793433972
 H    2.382091571386    1.366072985443    1.231145745279
 C    0.241701281737   -0.141702553034    1.039386249055
 N   -0.381828029454    1.097263147596    1.049264458073
 C   -1.681753516611    0.789183759235    1.040809604915
 H   -2.491807045398    1.515764560337    1.044857742778
 H   -2.827116090549   -1.028085923399    1.018171214438
RB   -0.374022303277    1.122717416969   -1.650604270367
