16

 N   -1.923661211242   -0.568920566661    1.141575191545
 C   -0.691535478975   -1.199210846669    1.142530151853
 N   -0.421394542849   -2.520096321637    1.139065962906
 C    0.906734625614   -2.738290214387    1.154633391569
 H    1.220542908584   -3.784968946877    1.158012962260
 N    1.919084068655   -1.830309257246    1.168604661844
 C    1.606867324748   -0.519488173997    1.163958257944
 N    2.614494279550    0.405010463308    1.122136421013
 H    3.545945816937    0.074480354556    1.344594355146
 H    2.381756773523    1.364981218347    1.346946666453
 C    0.241366483874   -0.142794320130    1.155187170229
 N   -0.382162827317    1.096171380500    1.165065379247
 C   -1.682088314474    0.788091992139    1.156610526089
 H   -2.492141843261    1.514672793241    1.160658663952
 H   -2.827450888412   -1.029177690495    1.133972135612
RB   -0.373489798231    1.124453902025   -1.834788763464
