16

 N   -1.923772810530   -0.569284489026    1.180175498603
 C   -0.691647078263   -1.199574769034    1.181130458911
 N   -0.421506142137   -2.520460244002    1.177666269964
 C    0.906623026326   -2.738654136752    1.193233698627
 H    1.220431309296   -3.785332869242    1.196613269318
 N    1.918972469367   -1.830673179611    1.207204968902
 C    1.606755725460   -0.519852096362    1.202558565002
 N    2.614382680262    0.404646540943    1.160736728071
 H    3.545834217649    0.074116432191    1.383194662204
 H    2.381645174235    1.364617295982    1.385546973511
 C    0.241254884586   -0.143158242495    1.193787477287
 N   -0.382274426605    1.095807458135    1.203665686305
 C   -1.682199913762    0.787728069774    1.195210833147
 H   -2.492253442549    1.514308870876    1.199258971010
 H   -2.827562487700   -1.029541612860    1.172572442670
RB   -0.373312296550    1.125032730378   -1.896183594497
