16

 N   -1.923884409818   -0.569648411392    1.218775805661
 C   -0.691758677551   -1.199938691400    1.219730765969
 N   -0.421617741425   -2.520824166368    1.216266577022
 C    0.906511427038   -2.739018059118    1.231834005685
 H    1.220319710008   -3.785696791608    1.235213576376
 N    1.918860870079   -1.831037101977    1.245805275960
 C    1.606644126172   -0.520216018728    1.241158872060
 N    2.614271080974    0.404282618577    1.199337035129
 H    3.545722618361    0.073752509825    1.421794969262
 H    2.381533574947    1.364253373616    1.424147280569
 C    0.241143285298   -0.143522164861    1.232387784345
 N   -0.382386025893    1.095443535769    1.242265993363
 C   -1.682311513050    0.787364147408    1.233811140205
 H   -2.492365041837    1.513944948510    1.237859278068
 H   -2.827674086988   -1.029905535226    1.211172749728
RB   -0.373134794868    1.125611558730   -1.957578425529
