16

 N   -1.923996009106   -0.570012333757    1.257376112719
 C   -0.691870276839   -1.200302613765    1.258331073027
 N   -0.421729340713   -2.521188088733    1.254866884080
 C    0.906399827750   -2.739381981483    1.270434312743
 H    1.220208110720   -3.786060713973    1.273813883434
 N    1.918749270791   -1.831401024342    1.284405583018
 C    1.606532526884   -0.520579941093    1.279759179118
 N    2.614159481686    0.403918696212    1.237937342187
 H    3.545611019073    0.073388587460    1.460395276320
 H    2.381421975659    1.363889451251    1.462747587627
 C    0.241031686010   -0.143886087226    1.270988091403
 N   -0.382497625181    1.095079613404    1.280866300421
 C   -1.682423112338    0.787000225043    1.272411447263
 H   -2.492476641125    1.513581026145    1.276459585126
 H   -2.827785686276   -1.030269457591    1.249773056786
RB   -0.372957293186    1.126190387082   -2.018973256562
