16

 N   -1.924107608394   -0.570376256122    1.295976419777
 C   -0.691981876127   -1.200666536130    1.296931380085
 N   -0.421840940001   -2.521552011098    1.293467191138
 C    0.906288228462   -2.739745903848    1.309034619801
 H    1.220096511432   -3.786424636338    1.312414190492
 N    1.918637671503   -1.831764946707    1.323005890076
 C    1.606420927596   -0.520943863458    1.318359486176
 N    2.614047882398    0.403554773847    1.276537649245
 H    3.545499419785    0.073024665095    1.498995583378
 H    2.381310376371    1.363525528886    1.501347894685
 C    0.240920086722   -0.144250009591    1.309588398461
 N   -0.382609224469    1.094715691039    1.319466607479
 C   -1.682534711626    0.786636302678    1.311011754321
 H   -2.492588240413    1.513217103780    1.315059892184
 H   -2.827897285564   -1.030633379956    1.288373363844
RB   -0.372779791505    1.126769215434   -2.080368087594
