16

 N   -1.924330806969   -0.571104100853    1.373177033892
 C   -0.692205074702   -1.201394380861    1.374131994200
 N   -0.422064138576   -2.522279855829    1.370667805253
 C    0.906065029887   -2.740473748579    1.386235233916
 H    1.219873312857   -3.787152481069    1.389614804607
 N    1.918414472928   -1.832492791438    1.400206504191
 C    1.606197729021   -0.521671708189    1.395560100291
 N    2.613824683823    0.402826929116    1.353738263360
 H    3.545276221210    0.072296820364    1.576196197493
 H    2.381087177796    1.362797684155    1.578548508800
 C    0.240696888147   -0.144977854322    1.386789012576
 N   -0.382832423044    1.093987846308    1.396667221594
 C   -1.682757910201    0.785908457947    1.388212368436
 H   -2.492811438988    1.512489259049    1.392260506299
 H   -2.828120484139   -1.031361224687    1.365573977959
RB   -0.372424788141    1.127926872138   -2.203157749659
