16

 N   -1.924888803408   -0.572923712679    1.566178569182
 C   -0.692763071141   -1.203213992687    1.567133529490
 N   -0.422622135015   -2.524099467655    1.563669340543
 C    0.905507033448   -2.742293360405    1.579236769206
 H    1.219315316418   -3.788972092895    1.582616339897
 N    1.917856476489   -1.834312403264    1.593208039481
 C    1.605639732582   -0.523491320015    1.588561635581
 N    2.613266687384    0.401007317290    1.546739798650
 H    3.544718224771    0.070477208538    1.769197732783
 H    2.380529181357    1.360978072329    1.771550044090
 C    0.240138891708   -0.146797466148    1.579790547866
 N   -0.383390419483    1.092168234482    1.589668756884
 C   -1.683315906640    0.784088846121    1.581213903726
 H   -2.493369435427    1.510669647223    1.585262041589
 H   -2.828678480578   -1.033180836513    1.558575513249
RB   -0.371537279732    1.130821013899   -2.510131904822
