16

 N   -1.925000402696   -0.573287635045    1.604778876240
 C   -0.692874670429   -1.203577915053    1.605733836548
 N   -0.422733734303   -2.524463390021    1.602269647601
 C    0.905395434160   -2.742657282771    1.617837076264
 H    1.219203717130   -3.789336015261    1.621216646955
 N    1.917744877201   -1.834676325630    1.631808346539
 C    1.605528133294   -0.523855242381    1.627161942639
 N    2.613155088096    0.400643394924    1.585340105708
 H    3.544606625483    0.070113286172    1.807798039841
 H    2.380417582069    1.360614149963    1.810150351148
 C    0.240027292420   -0.147161388514    1.618390854924
 N   -0.383502018771    1.091804312116    1.628269063942
 C   -1.683427505928    0.783724923755    1.619814210784
 H   -2.493481034715    1.510305724857    1.623862348647
 H   -2.828790079866   -1.033544758879    1.597175820307
RB   -0.371359778051    1.131399842252   -2.571526735854
