16

 N   -1.925335200559   -0.574379402141    1.720579797413
 C   -0.693209468292   -1.204669682149    1.721534757721
 N   -0.423068532166   -2.525555157117    1.718070568774
 C    0.905060636297   -2.743749049867    1.733637997437
 H    1.218868919267   -3.790427782357    1.737017568128
 N    1.917410079338   -1.835768092726    1.747609267712
 C    1.605193335431   -0.524947009477    1.742962863812
 N    2.612820290233    0.399551627828    1.701141026881
 H    3.544271827620    0.069021519076    1.923598961014
 H    2.380082784206    1.359522382867    1.925951272321
 C    0.239692494557   -0.148253155610    1.734191776097
 N   -0.383836816634    1.090712545020    1.744069985115
 C   -1.683762303791    0.782633156659    1.735615131957
 H   -2.493815832578    1.509213957761    1.739663269820
 H   -2.829124877729   -1.034636525975    1.712976741480
RB   -0.370827273006    1.133136327308   -2.755711228952
