16

 N   -1.927567186316   -0.581657849447    2.492585938571
 C   -0.695441454049   -1.211948129455    2.493540898879
 N   -0.425300517923   -2.532833604423    2.490076709932
 C    0.902828650540   -2.751027497173    2.505644138595
 H    1.216636933510   -3.797706229663    2.509023709286
 N    1.915178093581   -1.843046540032    2.519615408870
 C    1.602961349674   -0.532225456783    2.514969004970
 N    2.610588304476    0.392273180522    2.473147168039
 H    3.542039841863    0.061743071770    2.695605102172
 H    2.377850798449    1.352243935561    2.697957413479
 C    0.237460508800   -0.155531602916    2.506197917255
 N   -0.386068802391    1.083434097714    2.516076126273
 C   -1.685994289548    0.775354709353    2.507621273115
 H   -2.496047818335    1.501935510455    2.511669410978
 H   -2.831356863486   -1.041914973281    2.484982882638
RB   -0.367277239371    1.144712894352   -3.983607849601
