16

 N   -1.928013583467   -0.583113538909    2.646987166803
 C   -0.695887851200   -1.213403818917    2.647942127111
 N   -0.425746915074   -2.534289293885    2.644477938164
 C    0.902382253389   -2.752483186635    2.660045366827
 H    1.216190536359   -3.799161919125    2.663424937518
 N    1.914731696430   -1.844502229494    2.674016637102
 C    1.602514952523   -0.533681146245    2.669370233202
 N    2.610141907325    0.390817491060    2.627548396271
 H    3.541593444712    0.060287382308    2.850006330404
 H    2.377404401298    1.350788246099    2.852358641711
 C    0.237014111649   -0.156987292378    2.660599145487
 N   -0.386515199542    1.081978408252    2.670477354505
 C   -1.686440686699    0.773899019891    2.662022501347
 H   -2.496494215486    1.500479820993    2.666070639210
 H   -2.831803260637   -1.043370662743    2.639384110870
RB   -0.366567232644    1.147028207761   -4.229187173731
