16

 N   -1.928125182755   -0.583477461274    2.685587473861
 C   -0.695999450488   -1.213767741282    2.686542434169
 N   -0.425858514362   -2.534653216250    2.683078245222
 C    0.902270654101   -2.752847109000    2.698645673885
 H    1.216078937071   -3.799525841490    2.702025244576
 N    1.914620097142   -1.844866151859    2.712616944160
 C    1.602403353235   -0.534045068610    2.707970540260
 N    2.610030308037    0.390453568695    2.666148703329
 H    3.541481845424    0.059923459943    2.888606637462
 H    2.377292802010    1.350424323734    2.890958948769
 C    0.236902512361   -0.157351214743    2.699199452545
 N   -0.386626798830    1.081614485887    2.709077661563
 C   -1.686552285987    0.773535097526    2.700622808405
 H   -2.496605814774    1.500115898628    2.704670946268
 H   -2.831914859925   -1.043734585108    2.677984417928
RB   -0.366389730962    1.147607036113   -4.290582004764
