16

 N   -1.928348381330   -0.584205306005    2.762788087977
 C   -0.696222649063   -1.214495586013    2.763743048285
 N   -0.426081712937   -2.535381060981    2.760278859338
 C    0.902047455526   -2.753574953731    2.775846288001
 H    1.215855738496   -3.800253686221    2.779225858692
 N    1.914396898567   -1.845593996590    2.789817558276
 C    1.602180154660   -0.534772913341    2.785171154376
 N    2.609807109462    0.389725723964    2.743349317445
 H    3.541258646849    0.059195615212    2.965807251578
 H    2.377069603435    1.349696479003    2.968159562885
 C    0.236679313786   -0.158079059474    2.776400066661
 N   -0.386849997405    1.080886641156    2.786278275679
 C   -1.686775484562    0.772807252795    2.777823422521
 H   -2.496829013349    1.499388053897    2.781871560384
 H   -2.832138058500   -1.044462429839    2.755185032044
RB   -0.366034727599    1.148764692817   -4.413371666829
