16

 N   -1.928906377769   -0.586024917831    2.955789623266
 C   -0.696780645502   -1.216315197839    2.956744583574
 N   -0.426639709376   -2.537200672807    2.953280394627
 C    0.901489459087   -2.755394565557    2.968847823290
 H    1.215297742057   -3.802073298047    2.972227393981
 N    1.913838902128   -1.847413608416    2.982819093565
 C    1.601622158221   -0.536592525167    2.978172689665
 N    2.609249113023    0.387906112138    2.936350852734
 H    3.540700650410    0.057376003386    3.158808786867
 H    2.376511606996    1.347876867177    3.161161098174
 C    0.236121317347   -0.159898671300    2.969401601950
 N   -0.387407993844    1.079067029330    2.979279810968
 C   -1.687333481001    0.770987640969    2.970824957810
 H   -2.497387009788    1.497568442071    2.974873095673
 H   -2.832696054939   -1.046282041665    2.948186567333
RB   -0.365147219190    1.151658834578   -4.720345821991
