16

 N   -1.929241175633   -0.587116684927    3.071590544440
 C   -0.697115443366   -1.217406964935    3.072545504748
 N   -0.426974507240   -2.538292439903    3.069081315801
 C    0.901154661223   -2.756486332653    3.084648744464
 H    1.214962944193   -3.803165065143    3.088028315155
 N    1.913504104264   -1.848505375512    3.098620014739
 C    1.601287360357   -0.537684292263    3.093973610839
 N    2.608914315159    0.386814345042    3.052151773908
 H    3.540365852546    0.056284236290    3.274609708041
 H    2.376176809132    1.346785100081    3.276962019348
 C    0.235786519483   -0.160990438396    3.085202523124
 N   -0.387742791708    1.077975262234    3.095080732142
 C   -1.687668278865    0.769895873873    3.086625878984
 H   -2.497721807652    1.496476674975    3.090674016847
 H   -2.833030852803   -1.047373808761    3.063987488507
RB   -0.364614714145    1.153395319635   -4.904530315089
