16

 N   -1.929687572784   -0.588572374388    3.225991772671
 C   -0.697561840517   -1.218862654396    3.226946732979
 N   -0.427420904391   -2.539748129364    3.223482544032
 C    0.900708264072   -2.757942022114    3.239049972695
 H    1.214516547042   -3.804620754604    3.242429543386
 N    1.913057707113   -1.849961064973    3.253021242970
 C    1.600840963206   -0.539139981724    3.248374839070
 N    2.608467918008    0.385358655581    3.206553002139
 H    3.539919455395    0.054828546829    3.429010936272
 H    2.375730411981    1.345329410620    3.431363247579
 C    0.235340122332   -0.162446127857    3.239603751355
 N   -0.388189188859    1.076519572773    3.249481960373
 C   -1.688114676016    0.768440184412    3.241027107215
 H   -2.498168204803    1.495020985514    3.245075245078
 H   -2.833477249954   -1.048829498222    3.218388716738
RB   -0.363904707418    1.155710633043   -5.150109639219
