16

 N   -1.929910771359   -0.589300219119    3.303192386787
 C   -0.697785039092   -1.219590499127    3.304147347095
 N   -0.427644102966   -2.540475974095    3.300683158148
 C    0.900485065497   -2.758669866845    3.316250586811
 H    1.214293348467   -3.805348599335    3.319630157502
 N    1.912834508538   -1.850688909704    3.330221857086
 C    1.600617764631   -0.539867826455    3.325575453186
 N    2.608244719433    0.384630810850    3.283753616255
 H    3.539696256820    0.054100702098    3.506211550388
 H    2.375507213406    1.344601565889    3.508563861695
 C    0.235116923757   -0.163173972588    3.316804365471
 N   -0.388412387434    1.075791728042    3.326682574489
 C   -1.688337874591    0.767712339681    3.318227721331
 H   -2.498391403378    1.494293140783    3.322275859194
 H   -2.833700448529   -1.049557342953    3.295589330854
RB   -0.363549704055    1.156868289748   -5.272899301284
