16

 N   -1.930022370647   -0.589664141484    3.341792693845
 C   -0.697896638380   -1.219954421492    3.342747654153
 N   -0.427755702254   -2.540839896460    3.339283465206
 C    0.900373466209   -2.759033789210    3.354850893869
 H    1.214181749179   -3.805712521700    3.358230464560
 N    1.912722909250   -1.851052832069    3.368822164144
 C    1.600506165343   -0.540231748820    3.364175760244
 N    2.608133120145    0.384266888485    3.322353923313
 H    3.539584657532    0.053736779733    3.544811857446
 H    2.375395614118    1.344237643524    3.547164168753
 C    0.235005324469   -0.163537894953    3.355404672529
 N   -0.388523986722    1.075427805677    3.365282881547
 C   -1.688449473879    0.767348417316    3.356828028389
 H   -2.498503002666    1.493929218418    3.360876166252
 H   -2.833812047817   -1.049921265318    3.334189637912
RB   -0.363372202373    1.157447118100   -5.334294132316
