16

 N   -1.931026764237   -0.592939442772    3.689195457366
 C   -0.698901031970   -1.223229722780    3.690150417674
 N   -0.428760095844   -2.544115197748    3.686686228727
 C    0.899369072619   -2.762309090498    3.702253657390
 H    1.213177355589   -3.808987822988    3.705633228081
 N    1.911718515660   -1.854328133357    3.716224927665
 C    1.599501771753   -0.543507050108    3.711578523765
 N    2.607128726555    0.380991587197    3.669756686834
 H    3.538580263942    0.050461478445    3.892214620967
 H    2.374391220528    1.340962342236    3.894566932274
 C    0.234000930879   -0.166813196241    3.702807436050
 N   -0.389528380312    1.072152504389    3.712685645068
 C   -1.689453867469    0.764073116028    3.704230791910
 H   -2.499507396256    1.490653917130    3.708278929773
 H   -2.834816441407   -1.053196566606    3.681592401433
RB   -0.361774687237    1.162656573269   -5.886847611608
