16

 N   -1.931249962813   -0.593667287503    3.766396071482
 C   -0.699124230546   -1.223957567511    3.767351031790
 N   -0.428983294420   -2.544843042479    3.763886842843
 C    0.899145874043   -2.763036935229    3.779454271506
 H    1.212954157013   -3.809715667719    3.782833842197
 N    1.911495317084   -1.855055978088    3.793425541781
 C    1.599278573177   -0.544234894839    3.788779137881
 N    2.606905527979    0.380263742466    3.746957300950
 H    3.538357065366    0.049733633714    3.969415235083
 H    2.374168021952    1.340234497505    3.971767546390
 C    0.233777732303   -0.167541040972    3.780008050166
 N   -0.389751578888    1.071424659658    3.789886259184
 C   -1.689677066045    0.763345271297    3.781431406026
 H   -2.499730594832    1.489926072399    3.785479543889
 H   -2.835039639983   -1.053924411337    3.758793015549
RB   -0.361419683874    1.163814229974   -6.009637273673
