16

 N   -2.803531314348    0.572514574370   -0.442392677531
 C   -1.571405582081   -0.057775705638   -0.441437717223
 N   -1.301264645955   -1.378661180606   -0.444901906170
 C    0.026864522508   -1.596855073356   -0.429334477507
 H    0.340672805478   -2.643533805846   -0.425954906816
 N    1.039213965549   -0.688874116215   -0.415363207232
 C    0.726997221642    0.621946967034   -0.420009611132
 N    1.734624176444    1.546445604339   -0.461831448063
 H    2.666075713831    1.215915495587   -0.239373513930
 H    1.501886670417    2.506416359378   -0.237021202623
 C   -0.638503619232    0.998640820901   -0.428780698847
 N   -1.262032930423    2.237606521531   -0.418902489829
 C   -2.561958417580    1.929527133170   -0.427357342987
 H   -3.372011946367    2.656107934272   -0.423309205124
 H   -3.707320991518    0.112257450536   -0.449995733464
RB    1.025967367477   -0.691029521799    0.684554917842
