16

 N   -2.802601591413    0.572665853211   -0.519591298797
 C   -1.570475859146   -0.057624426797   -0.518636338489
 N   -1.300334923020   -1.378509901765   -0.522100527436
 C    0.027794245443   -1.596703794515   -0.506533098773
 H    0.341602528413   -2.643382527005   -0.503153528082
 N    1.040143688484   -0.688722837374   -0.492561828498
 C    0.727926944577    0.622098245875   -0.497208232398
 N    1.735553899379    1.546596883180   -0.539030069329
 H    2.667005436766    1.216066774428   -0.316572135196
 H    1.502816393352    2.506567638219   -0.314219823889
 C   -0.637573896297    0.998792099742   -0.505979320113
 N   -1.261103207488    2.237757800372   -0.496101111095
 C   -2.561028694645    1.929678412011   -0.504555964253
 H   -3.371082223432    2.656259213113   -0.500507826390
 H   -3.706391268583    0.112408729377   -0.527194354730
RB    1.024488618035   -0.691270134882    0.807341410226
