16

 N   -2.801207007010    0.572892771473   -0.635389230696
 C   -1.569081274743   -0.057397508535   -0.634434270388
 N   -1.298940338617   -1.378282983503   -0.637898459335
 C    0.029188829846   -1.596476876253   -0.622331030672
 H    0.342997112816   -2.643155608743   -0.618951459981
 N    1.041538272887   -0.688495919112   -0.608359760397
 C    0.729321528980    0.622325164137   -0.613006164297
 N    1.736948483782    1.546823801442   -0.654828001228
 H    2.668400021169    1.216293692690   -0.432370067095
 H    1.504210977755    2.506794556481   -0.430017755788
 C   -0.636179311894    0.999019018004   -0.621777252012
 N   -1.259708623085    2.237984718634   -0.611899042994
 C   -2.559634110242    1.929905330273   -0.620353896152
 H   -3.369687639029    2.656486131375   -0.616305758289
 H   -3.704996684180    0.112635647639   -0.642992286629
RB    1.022270493873   -0.691631054507    0.991521148801
