16

 N   -2.800742145543    0.572968410894   -0.673988541329
 C   -1.568616413276   -0.057321869114   -0.673033581021
 N   -1.298475477150   -1.378207344082   -0.676497769968
 C    0.029653691313   -1.596401236832   -0.660930341305
 H    0.343461974283   -2.643079969322   -0.657550770614
 N    1.042003134354   -0.688420279691   -0.646959071030
 C    0.729786390447    0.622400803558   -0.651605474930
 N    1.737413345249    1.546899440863   -0.693427311861
 H    2.668864882636    1.216369332111   -0.470969377728
 H    1.504675839222    2.506870195902   -0.468617066421
 C   -0.635714450427    0.999094657425   -0.660376562645
 N   -1.259243761618    2.238060358055   -0.650498353627
 C   -2.559169248775    1.929980969694   -0.658953206785
 H   -3.369222777562    2.656561770796   -0.654905068922
 H   -3.704531822713    0.112711287060   -0.681591597262
RB    1.021531119152   -0.691751361049    1.052914394993
