16

 N   -2.799812422608    0.573119689735   -0.751187162595
 C   -1.567686690341   -0.057170590273   -0.750232202287
 N   -1.297545754215   -1.378056065241   -0.753696391234
 C    0.030583414248   -1.596249957991   -0.738128962571
 H    0.344391697218   -2.642928690481   -0.734749391880
 N    1.042932857289   -0.688269000850   -0.724157692296
 C    0.730716113382    0.622552082399   -0.728804096196
 N    1.738343068184    1.547050719704   -0.770625933127
 H    2.669794605571    1.216520610952   -0.548167998994
 H    1.505605562157    2.507021474743   -0.545815687687
 C   -0.634784727492    0.999245936266   -0.737575183911
 N   -1.258314038683    2.238211636896   -0.727696974893
 C   -2.558239525840    1.930132248535   -0.736151828051
 H   -3.368293054627    2.656713049637   -0.732103690188
 H   -3.703602099778    0.112862565901   -0.758790218528
RB    1.020052369711   -0.691991974132    1.175700887377
