16

 N   -2.762158643736    0.579246482804   -3.877731323872
 C   -1.530032911469   -0.051043797204   -3.876776363564
 N   -1.259891975343   -1.371929272172   -3.880240552511
 C    0.068237193120   -1.590123164922   -3.864673123848
 H    0.382045476090   -2.636801897412   -3.861293553157
 N    1.080586636161   -0.682142207781   -3.850701853573
 C    0.768369892254    0.628678875468   -3.855348257473
 N    1.775996847056    1.553177512773   -3.897170094404
 H    2.707448384443    1.222647404021   -3.674712160271
 H    1.543259341029    2.513148267812   -3.672359848964
 C   -0.597130948620    1.005372729335   -3.864119345188
 N   -1.220660259811    2.244338429965   -3.854241136170
 C   -2.520585746968    1.936259041604   -3.862695989328
 H   -3.330639275755    2.662839842706   -3.858647851465
 H   -3.665948320906    0.118989358970   -3.885334379805
RB    0.960163017326   -0.701736804003    6.148553828917
