16

 N   -2.797023253803    0.573573526259   -0.982783026394
 C   -1.564897521536   -0.056716753749   -0.981828066086
 N   -1.294756585410   -1.377602228717   -0.985292255033
 C    0.033372583053   -1.595796121467   -0.969724826370
 H    0.347180866023   -2.642474853957   -0.966345255679
 N    1.045722026094   -0.687815164326   -0.955753556095
 C    0.733505282187    0.623005918923   -0.960399959995
 N    1.741132236989    1.547504556228   -1.002221796926
 H    2.672583774376    1.216974447476   -0.779763862793
 H    1.508394730962    2.507475311267   -0.777411551486
 C   -0.631995558687    0.999699772790   -0.969171047710
 N   -1.255524869878    2.238665473420   -0.959292838692
 C   -2.555450357035    1.930586085059   -0.967747691850
 H   -3.365503885822    2.657166886161   -0.963699553987
 H   -3.700812930973    0.113316402425   -0.990386082327
RB    1.015616121386   -0.692713813382    1.544060364528
