16

 N   -2.796093530867    0.573724805100   -1.059981647660
 C   -1.563967798600   -0.056565474908   -1.059026687352
 N   -1.293826862474   -1.377450949876   -1.062490876299
 C    0.034302305989   -1.595644842626   -1.046923447636
 H    0.348110588959   -2.642323575116   -1.043543876945
 N    1.046651749030   -0.687663885485   -1.032952177361
 C    0.734435005123    0.623157197764   -1.037598581261
 N    1.742061959925    1.547655835069   -1.079420418192
 H    2.673513497312    1.217125726317   -0.856962484059
 H    1.509324453898    2.507626590108   -0.854610172752
 C   -0.631065835751    0.999851051631   -1.046369668976
 N   -1.254595146942    2.238816752261   -1.036491459958
 C   -2.554520634099    1.930737363900   -1.044946313116
 H   -3.364574162886    2.657318165002   -1.040898175253
 H   -3.699883208037    0.113467681266   -1.067584703593
RB    1.014137371944   -0.692954426465    1.666846856912
