16

 N   -2.794234084997    0.574027362782   -1.214378890192
 C   -1.562108352730   -0.056262917226   -1.213423929884
 N   -1.291967416604   -1.377148392194   -1.216888118831
 C    0.036161751859   -1.595342284944   -1.201320690168
 H    0.349970034829   -2.642021017434   -1.197941119477
 N    1.048511194900   -0.687361327803   -1.187349419893
 C    0.736294450993    0.623459755446   -1.191995823793
 N    1.743921405795    1.547958392751   -1.233817660724
 H    2.675372943182    1.217428283999   -1.011359726591
 H    1.511183899768    2.507929147790   -1.009007415284
 C   -0.629206389881    1.000153609313   -1.200766911508
 N   -1.252735701072    2.239119309943   -1.190888702490
 C   -2.552661188229    1.931039921582   -1.199343555648
 H   -3.362714717016    2.657620722684   -1.195295417785
 H   -3.698023762167    0.113770238948   -1.221981946125
RB    1.011179873061   -0.693435652631    1.912419841679
