16

 N   -2.787261162984    0.575161954091   -1.793368549688
 C   -1.555135430717   -0.055128325917   -1.792413589380
 N   -1.284994494591   -1.376013800885   -1.795877778327
 C    0.043134673872   -1.594207693635   -1.780310349664
 H    0.356942956842   -2.640886426125   -1.776930778973
 N    1.055484116913   -0.686226736494   -1.766339079389
 C    0.743267373006    0.624594346755   -1.770985483289
 N    1.750894327808    1.549092984060   -1.812807320220
 H    2.682345865195    1.218562875308   -1.590349386087
 H    1.518156821781    2.509063739099   -1.587997074780
 C   -0.622233467868    1.001288200622   -1.779756571004
 N   -1.245762779059    2.240253901252   -1.769878361986
 C   -2.545688266216    1.932174512891   -1.778333215144
 H   -3.355741795003    2.658755313993   -1.774285077281
 H   -3.691050840154    0.114904830257   -1.800971605621
RB    1.000089252249   -0.695240250756    2.833318534557
