16

 N   -2.786331440049    0.575313232933   -1.870567170954
 C   -1.554205707782   -0.054977047075   -1.869612210646
 N   -1.284064771656   -1.375862522043   -1.873076399593
 C    0.044064396807   -1.594056414793   -1.857508970930
 H    0.357872679777   -2.640735147283   -1.854129400239
 N    1.056413839848   -0.686075457652   -1.843537700655
 C    0.744197095941    0.624745625597   -1.848184104555
 N    1.751824050743    1.549244262902   -1.890005941486
 H    2.683275588130    1.218714154150   -1.667548007353
 H    1.519086544716    2.509215017941   -1.665195696046
 C   -0.621303744933    1.001439479464   -1.856955192270
 N   -1.244833056124    2.240405180094   -1.847076983252
 C   -2.544758543281    1.932325791733   -1.855531836410
 H   -3.354812072068    2.658906592835   -1.851483698547
 H   -3.690121117219    0.115056109099   -1.878170226887
RB    0.998610502807   -0.695480863839    2.956105026941
