16

 N   -2.784007132711    0.575691430036   -2.063563724119
 C   -1.551881400444   -0.054598849972   -2.062608763811
 N   -1.281740464318   -1.375484324940   -2.066072952758
 C    0.046388704145   -1.593678217690   -2.050505524095
 H    0.360196987115   -2.640356950180   -2.047125953404
 N    1.058738147186   -0.685697260549   -2.036534253820
 C    0.746521403279    0.625123822700   -2.041180657720
 N    1.754148358081    1.549622460005   -2.083002494651
 H    2.685599895468    1.219092351253   -1.860544560518
 H    1.521410852054    2.509593215044   -1.858192249211
 C   -0.618979437595    1.001817676567   -2.049951745435
 N   -1.242508748786    2.240783377197   -2.040073536417
 C   -2.542434235943    1.932703988836   -2.048528389575
 H   -3.352487764730    2.659284789938   -2.044480251712
 H   -3.687796809881    0.115434306202   -2.071166780052
RB    0.994913629203   -0.696082396547    3.263071257900
