16

 N   -2.782612548308    0.575918348297   -2.179361656018
 C   -1.550486816041   -0.054371931711   -2.178406695710
 N   -1.280345879915   -1.375257406679   -2.181870884657
 C    0.047783288548   -1.593451299429   -2.166303455994
 H    0.361591571518   -2.640130031919   -2.162923885303
 N    1.060132731589   -0.685470342288   -2.152332185719
 C    0.747915987682    0.625350740961   -2.156978589619
 N    1.755542942484    1.549849378266   -2.198800426550
 H    2.686994479871    1.219319269514   -1.976342492417
 H    1.522805436457    2.509820133305   -1.973990181110
 C   -0.617584853192    1.002044594828   -2.165749677334
 N   -1.241114164383    2.241010295458   -2.155871468316
 C   -2.541039651540    1.932930907097   -2.164326321474
 H   -3.351093180327    2.659511708199   -2.160278183611
 H   -3.686402225478    0.115661224463   -2.186964711951
RB    0.992695505041   -0.696443316172    3.447250996476
