16

 N   -2.781682825373    0.576069627139   -2.256560277284
 C   -1.549557093106   -0.054220652869   -2.255605316976
 N   -1.279416156980   -1.375106127837   -2.259069505923
 C    0.048713011483   -1.593300020587   -2.243502077260
 H    0.362521294453   -2.639978753077   -2.240122506569
 N    1.061062454524   -0.685319063446   -2.229530806985
 C    0.748845710617    0.625502019803   -2.234177210885
 N    1.756472665419    1.550000657108   -2.275999047816
 H    2.687924202806    1.219470548356   -2.053541113683
 H    1.523735159392    2.509971412147   -2.051188802376
 C   -0.616655130257    1.002195873670   -2.242948298600
 N   -1.240184441448    2.241161574300   -2.233070089582
 C   -2.540109928605    1.933082185939   -2.241524942740
 H   -3.350163457392    2.659662987041   -2.237476804877
 H   -3.685472502543    0.115812503305   -2.264163333217
RB    0.991216755599   -0.696683929255    3.570037488859
