16

 N   -2.781217963906    0.576145266559   -2.295159587917
 C   -1.549092231639   -0.054145013449   -2.294204627609
 N   -1.278951295513   -1.375030488417   -2.297668816556
 C    0.049177872950   -1.593224381167   -2.282101387893
 H    0.362986155920   -2.639903113657   -2.278721817202
 N    1.061527315991   -0.685243424026   -2.268130117618
 C    0.749310572084    0.625577659223   -2.272776521518
 N    1.756937526886    1.550076296528   -2.314598358449
 H    2.688389064273    1.219546187776   -2.092140424316
 H    1.524200020859    2.510047051567   -2.089788113009
 C   -0.616190268790    1.002271513090   -2.281547609233
 N   -1.239719579981    2.241237213720   -2.271669400215
 C   -2.539645067138    1.933157825359   -2.280124253373
 H   -3.349698595925    2.659738626461   -2.276076115510
 H   -3.685007641076    0.115888142725   -2.302762643850
RB    0.990477380878   -0.696804235797    3.631430735051
