16

 N   -2.780753102438    0.576220905980   -2.333758898550
 C   -1.548627370171   -0.054069374028   -2.332803938242
 N   -1.278486434045   -1.374954848996   -2.336268127189
 C    0.049642734418   -1.593148741746   -2.320700698526
 H    0.363451017388   -2.639827474236   -2.317321127835
 N    1.061992177459   -0.685167784605   -2.306729428251
 C    0.749775433552    0.625653298644   -2.311375832151
 N    1.757402388354    1.550151935949   -2.353197669082
 H    2.688853925741    1.219621827197   -2.130739734949
 H    1.524664882327    2.510122690988   -2.128387423642
 C   -0.615725407322    1.002347152511   -2.320146919866
 N   -1.239254718513    2.241312853141   -2.310268710848
 C   -2.539180205670    1.933233464780   -2.318723564006
 H   -3.349233734457    2.659814265882   -2.314675426143
 H   -3.684542779608    0.115963782146   -2.341361954483
RB    0.989738006158   -0.696924542338    3.692823981243
