16

 N   -2.780288240971    0.576296545400   -2.372358209183
 C   -1.548162508704   -0.053993734608   -2.371403248875
 N   -1.278021572578   -1.374879209576   -2.374867437822
 C    0.050107595885   -1.593073102326   -2.359300009159
 H    0.363915878855   -2.639751834816   -2.355920438468
 N    1.062457038926   -0.685092145185   -2.345328738884
 C    0.750240295019    0.625728938064   -2.349975142784
 N    1.757867249821    1.550227575369   -2.391796979715
 H    2.689318787208    1.219697466617   -2.169339045582
 H    1.525129743794    2.510198330408   -2.166986734275
 C   -0.615260545855    1.002422791931   -2.358746230499
 N   -1.238789857046    2.241388492561   -2.348868021481
 C   -2.538715344203    1.933309104200   -2.357322874639
 H   -3.348768872990    2.659889905302   -2.353274736776
 H   -3.684077918141    0.116039421566   -2.379961265116
RB    0.988998631437   -0.697044848880    3.754217227435
