16

 N   -2.777034210698    0.576826021345   -2.642553383615
 C   -1.544908478431   -0.053464258663   -2.641598423307
 N   -1.274767542305   -1.374349733631   -2.645062612254
 C    0.053361626158   -1.592543626381   -2.629495183591
 H    0.367169909128   -2.639222358871   -2.626115612900
 N    1.065711069199   -0.684562669240   -2.615523913316
 C    0.753494325292    0.626258414009   -2.620170317216
 N    1.761121280094    1.550757051314   -2.661992154147
 H    2.692572817481    1.220226942562   -2.439534220014
 H    1.528383774067    2.510727806353   -2.437181908707
 C   -0.612006515582    1.002952267876   -2.628941404931
 N   -1.235535826773    2.241917968506   -2.619063195913
 C   -2.535461313930    1.933838580145   -2.627518049071
 H   -3.345514842717    2.660419381247   -2.623469911208
 H   -3.680823887868    0.116568897511   -2.650156439548
RB    0.983823008391   -0.697886994671    4.183969950778
