16

 N   -2.775174764828    0.577128579027   -2.796950626147
 C   -1.543049032561   -0.053161700981   -2.795995665839
 N   -1.272908096435   -1.374047175949   -2.799459854786
 C    0.055221072028   -1.592241068699   -2.783892426123
 H    0.369029354998   -2.638919801189   -2.780512855432
 N    1.067570515069   -0.684260111558   -2.769921155848
 C    0.755353771162    0.626560971691   -2.774567559748
 N    1.762980725964    1.551059608996   -2.816389396679
 H    2.694432263351    1.220529500244   -2.593931462546
 H    1.530243219937    2.511030364035   -2.591579151239
 C   -0.610147069712    1.003254825558   -2.783338647463
 N   -1.233676380903    2.242220526188   -2.773460438445
 C   -2.533601868060    1.934141137827   -2.781915291603
 H   -3.343655396847    2.660721938929   -2.777867153740
 H   -3.678964441998    0.116871455193   -2.804553682080
RB    0.980865509508   -0.698368220838    4.429542935545
