16

 N   -2.774245041893    0.577279857868   -2.874149247413
 C   -1.542119309626   -0.053010422140   -2.873194287105
 N   -1.271978373500   -1.373895897108   -2.876658476052
 C    0.056150794963   -1.592089789858   -2.861091047389
 H    0.369959077933   -2.638768522348   -2.857711476698
 N    1.068500238004   -0.684108832717   -2.847119777114
 C    0.756283494097    0.626712250532   -2.851766181014
 N    1.763910448899    1.551210887837   -2.893588017945
 H    2.695361986286    1.220680779085   -2.671130083812
 H    1.531172942872    2.511181642876   -2.668777772505
 C   -0.609217346777    1.003406104399   -2.860537268729
 N   -1.232746657968    2.242371805029   -2.850659059711
 C   -2.532672145125    1.934292416668   -2.859113912869
 H   -3.342725673912    2.660873217770   -2.855065775006
 H   -3.678034719063    0.117022734034   -2.881752303346
RB    0.979386760066   -0.698608833921    4.552329427929
