16

 N   -2.771920734555    0.577658054971   -3.067145800578
 C   -1.539795002288   -0.052632225037   -3.066190840270
 N   -1.269654066162   -1.373517700005   -3.069655029217
 C    0.058475102301   -1.591711592755   -3.054087600554
 H    0.372283385271   -2.638390325245   -3.050708029863
 N    1.070824545342   -0.683730635614   -3.040116330279
 C    0.758607801435    0.627090447635   -3.044762734179
 N    1.766234756237    1.551589084940   -3.086584571110
 H    2.697686293624    1.221058976188   -2.864126636977
 H    1.533497250210    2.511559839979   -2.861774325670
 C   -0.606893039439    1.003784301502   -3.053533821894
 N   -1.230422350630    2.242750002132   -3.043655612876
 C   -2.530347837787    1.934670613771   -3.052110466034
 H   -3.340401366574    2.661251414873   -3.048062328171
 H   -3.675710411725    0.117400931137   -3.074748856511
RB    0.975689886462   -0.699210366629    4.859295658888
