16

 N   -2.770526150152    0.577884973233   -3.182943732477
 C   -1.538400417885   -0.052405306775   -3.181988772169
 N   -1.268259481759   -1.373290781743   -3.185452961116
 C    0.059869686704   -1.591484674493   -3.169885532453
 H    0.373677969674   -2.638163406983   -3.166505961762
 N    1.072219129745   -0.683503717352   -3.155914262178
 C    0.760002385838    0.627317365897   -3.160560666078
 N    1.767629340640    1.551816003202   -3.202382503009
 H    2.699080878027    1.221285894450   -2.979924568876
 H    1.534891834613    2.511786758241   -2.977572257569
 C   -0.605498455036    1.004011219764   -3.169331753793
 N   -1.229027766227    2.242976920394   -3.159453544775
 C   -2.528953253384    1.934897532033   -3.167908397933
 H   -3.339006782171    2.661478333135   -3.163860260070
 H   -3.674315827322    0.117627849399   -3.190546788410
RB    0.973471762300   -0.699571286254    5.043475397464
