16

 N   -2.769596427217    0.578036252074   -3.260142353744
 C   -1.537470694950   -0.052254027934   -3.259187393436
 N   -1.267329758824   -1.373139502902   -3.262651582383
 C    0.060799409639   -1.591333395652   -3.247084153720
 H    0.374607692609   -2.638012128142   -3.243704583029
 N    1.073148852680   -0.683352438511   -3.233112883445
 C    0.760932108773    0.627468644738   -3.237759287345
 N    1.768559063575    1.551967282043   -3.279581124276
 H    2.700010600962    1.221437173291   -3.057123190143
 H    1.535821557548    2.511938037082   -3.054770878836
 C   -0.604568732101    1.004162498605   -3.246530375060
 N   -1.228098043292    2.243128199235   -3.236652166042
 C   -2.528023530449    1.935048810874   -3.245107019200
 H   -3.338077059236    2.661629611976   -3.241058881337
 H   -3.673386104387    0.117779128240   -3.267745409677
RB    0.971993012858   -0.699811899337    5.166261889848
