16

 N   -2.768666704282    0.578187530915   -3.337340975010
 C   -1.536540972015   -0.052102749093   -3.336386014702
 N   -1.266400035889   -1.372988224061   -3.339850203649
 C    0.061729132574   -1.591182116811   -3.324282774986
 H    0.375537415544   -2.637860849301   -3.320903204295
 N    1.074078575615   -0.683201159670   -3.310311504711
 C    0.761861831708    0.627619923579   -3.314957908611
 N    1.769488786510    1.552118560884   -3.356779745542
 H    2.700940323897    1.221588452132   -3.134321811409
 H    1.536751280483    2.512089315923   -3.131969500102
 C   -0.603639009166    1.004313777446   -3.323728996326
 N   -1.227168320357    2.243279478076   -3.313850787308
 C   -2.527093807514    1.935200089715   -3.322305640466
 H   -3.337147336301    2.661780890817   -3.318257502603
 H   -3.672456381452    0.117930407081   -3.344944030943
RB    0.970514263417   -0.700052512420    5.289048382231
