16

 N   -2.767272119879    0.578414449177   -3.453138906909
 C   -1.535146387612   -0.051875830831   -3.452183946601
 N   -1.265005451486   -1.372761305799   -3.455648135548
 C    0.063123716977   -1.590955198549   -3.440080706885
 H    0.376931999947   -2.637633931039   -3.436701136194
 N    1.075473160018   -0.682974241408   -3.426109436610
 C    0.763256416111    0.627846841841   -3.430755840510
 N    1.770883370913    1.552345479146   -3.472577677441
 H    2.702334908300    1.221815370394   -3.250119743308
 H    1.538145864886    2.512316234185   -3.247767432001
 C   -0.602244424763    1.004540695708   -3.439526928225
 N   -1.225773735954    2.243506396338   -3.429648719207
 C   -2.525699223111    1.935427007977   -3.438103572365
 H   -3.335752751898    2.662007809079   -3.434055434502
 H   -3.671061797049    0.118157325343   -3.460741962842
RB    0.968296139254   -0.700413432045    5.473228120807
