16

 N   -2.764947812542    0.578792646280   -3.646135460074
 C   -1.532822080275   -0.051497633728   -3.645180499766
 N   -1.262681144149   -1.372383108696   -3.648644688713
 C    0.065448024314   -1.590577001446   -3.633077260050
 H    0.379256307284   -2.637255733936   -3.629697689359
 N    1.077797467355   -0.682596044305   -3.619105989775
 C    0.765580723448    0.628225038944   -3.623752393675
 N    1.773207678250    1.552723676249   -3.665574230606
 H    2.704659215637    1.222193567497   -3.443116296473
 H    1.540470172223    2.512694431288   -3.440763985166
 C   -0.599920117426    1.004918892811   -3.632523481390
 N   -1.223449428617    2.243884593441   -3.622645272372
 C   -2.523374915774    1.935805205080   -3.631100125530
 H   -3.333428444561    2.662386006182   -3.627051987667
 H   -3.668737489712    0.118535522446   -3.653738516007
RB    0.964599265650   -0.701014964753    5.780194351766
