16

 N   -2.764482951074    0.578868285701   -3.684734770707
 C   -1.532357218807   -0.051421994307   -3.683779810399
 N   -1.262216282681   -1.372307469275   -3.687243999346
 C    0.065912885782   -1.590501362025   -3.671676570683
 H    0.379721168752   -2.637180094515   -3.668296999992
 N    1.078262328823   -0.682520404884   -3.657705300408
 C    0.766045584916    0.628300678365   -3.662351704308
 N    1.773672539718    1.552799315670   -3.704173541239
 H    2.705124077105    1.222269206918   -3.481715607106
 H    1.540935033691    2.512770070709   -3.479363295799
 C   -0.599455255958    1.004994532232   -3.671122792023
 N   -1.222984567149    2.243960232862   -3.661244583005
 C   -2.522910054306    1.935880844501   -3.669699436163
 H   -3.332963583093    2.662461645603   -3.665651298300
 H   -3.668272628244    0.118611161867   -3.692337826640
RB    0.963859890930   -0.701135271295    5.841587597958
