16

 N   -2.763088366671    0.579095203963   -3.800532702606
 C   -1.530962634404   -0.051195076045   -3.799577742298
 N   -1.260821698278   -1.372080551013   -3.803041931245
 C    0.067307470185   -1.590274443763   -3.787474502582
 H    0.381115753155   -2.636953176253   -3.784094931891
 N    1.079656913226   -0.682293486622   -3.773503232307
 C    0.767440169319    0.628527596627   -3.778149636207
 N    1.775067124121    1.553026233932   -3.819971473138
 H    2.706518661508    1.222496125180   -3.597513539005
 H    1.542329618094    2.512996988971   -3.595161227698
 C   -0.598060671555    1.005221450494   -3.786920723922
 N   -1.221589982746    2.244187151124   -3.777042514904
 C   -2.521515469903    1.936107762763   -3.785497368062
 H   -3.331568998690    2.662688563865   -3.781449230199
 H   -3.666878043841    0.118838080129   -3.808135758539
RB    0.961641766767   -0.701496190920    6.025767336534
