21

 H    3.323714238641   -2.811914864796    0.218361902628
 H    2.117014238641   -3.428974864796   -0.960748097372
 H    1.639164238641   -3.190954864796    0.757881902628
 C    2.262964238641   -2.814064864796   -0.060548097372
 S    1.755244238641   -1.120944864796   -0.521428097372
 S    2.003674238641   -0.088014864796    1.290881902628
 C    3.584744238641    0.782945135204    1.010871902628
 H    4.389574238641    0.046875135204    0.895911902628
 H    3.760464238641    1.387335135204    1.912771902628
 H    3.513274238641    1.432045135204    0.130791902628
NA   -0.592645761359    0.373005135204    0.167391902628
 S   -1.739208148245    1.102556723178    0.503768437872
 S   -1.724147663787   -0.024284418539   -1.269113614251
 C   -2.302390906089    2.734246752239   -0.093931922116
 H   -3.324624001923    2.646050007155   -0.481556751091
 H   -2.294047844177    3.397030824807    0.783808174079
 H   -1.619734463940    3.117019837750   -0.861058818465
 C   -3.266760973807   -0.989789795823   -1.111305615137
 H   -4.125030144984   -0.307066851971   -1.118932550639
 H   -3.305129015411   -1.644230681597   -1.994378124340
 H   -3.248743050296   -1.592784595493   -0.196402604921
