21

 H    3.489132243336   -2.915203165889    0.172944227922
 H    2.282432243336   -3.532263165889   -1.006165772078
 H    1.804582243336   -3.294243165889    0.712464227922
 C    2.428382243336   -2.917353165889   -0.105965772078
 S    1.920662243336   -1.224233165889   -0.566845772078
 S    2.169092243336   -0.191303165889    1.245464227922
 C    3.750162243336    0.679656834111    0.965454227922
 H    4.554992243336   -0.056413165889    0.850494227922
 H    3.925882243336    1.284046834111    1.867354227922
 H    3.678692243336    1.328756834111    0.085374227922
NA   -0.427227756664    0.269716834111    0.121974227922
 S   -1.901379396946    1.207711732935    0.554458344665
 S   -1.974210372814    0.109938067741   -1.235149762313
 C   -2.448183563585    2.860979408869    0.002603214167
 H   -3.485156810338    2.801702321361   -0.349767171247
 H   -2.393966720529    3.508984311493    0.889694072030
 H   -1.784457751037    3.241085715245   -0.782257263696
 C   -3.531765057560   -0.823751158977   -1.037646207057
 H   -4.374104574533   -0.122226807709   -1.004142757637
 H   -3.615979464974   -1.462666494466   -1.928868493449
 H   -3.495212547883   -1.441868779155   -0.133450755973
