21

 H    3.529954372964   -2.940818496854    0.161537056545
 H    2.323254372964   -3.557878496854   -1.017572943455
 H    1.845404372964   -3.319858496854    0.701057056545
 C    2.469204372964   -2.942968496854   -0.117372943455
 S    1.961484372964   -1.249848496854   -0.578252943455
 S    2.209914372964   -0.216918496854    1.234057056545
 C    3.790984372964    0.654041503146    0.954047056545
 H    4.595814372964   -0.082028496854    0.839087056545
 H    3.966704372964    1.258431503146    1.855947056545
 H    3.719514372964    1.303141503146    0.073967056545
NA   -0.386405627036    0.244101503146    0.110567056545
 S   -1.942454580667    1.234207229682    0.567078068662
 S   -2.035049639924    0.143280109761   -1.225800265643
 C   -2.485284210335    2.892177756703    0.025503868128
 H   -3.525312417913    2.839374326673   -0.318800214506
 H   -2.420747531001    3.536696063244    0.914442099702
 H   -1.825911716468    3.271781451883   -0.763259516568
 C   -3.595673975664   -0.783293009439   -1.019223984643
 H   -4.434171489986   -0.077678600203   -0.976504172432
 H   -3.690193896871   -1.418556568240   -1.912021963725
 H   -3.555050718863   -1.404846211814   -0.117560932431
