21

 H    3.570588056025   -2.966356902296    0.150117136755
 H    2.363888056025   -3.583416902296   -1.028992863245
 H    1.886038056025   -3.345396902296    0.689637136755
 C    2.509838056025   -2.968506902296   -0.128792863245
 S    2.002118056025   -1.275386902296   -0.589672863245
 S    2.250548056025   -0.242456902296    1.222637136755
 C    3.831618056025    0.628503097704    0.942627136755
 H    4.636448056025   -0.107566902296    0.827667136755
 H    4.007338056025    1.232893097704    1.844527136755
 H    3.760148056025    1.277603097704    0.062547136755
NA   -0.345771943975    0.218563097704    0.099147136755
 S   -1.983718210955    1.260779651953    0.579685044247
 S   -2.095286209236    0.176532382524   -1.216162663131
 C   -2.522631496115    2.923213096182    0.047970454841
 H   -3.565502496057    2.876613980981   -0.288542213630
 H   -2.448186611232    3.564327873323    0.938593726290
 H   -1.867471431562    3.302367900049   -0.744510240583
 C   -3.658756861047   -0.743222763354   -1.000826147521
 H   -4.493476192579   -0.033729720198   -0.949270181043
 H   -3.763168414753   -1.374925144114   -1.895047801080
 H   -3.614259423028   -1.368086113630   -0.101637255468
