21

 H    3.611044130061   -2.991821210938    0.138687726778
 H    2.404344130061   -3.608881210938   -1.040422273222
 H    1.926494130061   -3.370861210938    0.678207726778
 C    2.550294130061   -2.993971210938   -0.140222273222
 S    2.042574130061   -1.300851210938   -0.601102273222
 S    2.291004130061   -0.267921210938    1.211207726778
 C    3.872074130061    0.603038789062    0.931197726778
 H    4.676904130061   -0.133031210938    0.816237726778
 H    4.047794130061    1.207428789062    1.833097726778
 H    3.800604130061    1.252138789062    0.051117726778
NA   -0.305315869939    0.193098789062    0.087717726778
 S   -2.025159450268    1.287426171023    0.592282529644
 S   -2.154950782800    0.209694010715   -1.206260255011
 C   -2.560217917734    2.954098469176    0.070028973445
 H   -3.605736373230    2.913449114470   -0.258955775865
 H   -2.476254937910    3.591891999923    0.962189071272
 H   -1.909134677407    3.332853153276   -0.725995040978
 C   -3.721062503583   -0.703524801305   -0.982462797926
 H   -4.552069818767    0.009649573353   -0.922430208098
 H   -3.834973625603   -1.331755365273   -1.877969721896
 H   -3.672875000692   -1.331578685611   -0.085690153900
