21

 H    3.651332710327   -3.017214193268    0.127251661459
 H    2.444632710327   -3.634274193268   -1.051858338541
 H    1.966782710327   -3.396254193268    0.666771661459
 C    2.590582710327   -3.019364193268   -0.151658338541
 S    2.082862710327   -1.326244193268   -0.612538338541
 S    2.331292710327   -0.293314193268    1.199771661459
 C    3.912362710327    0.577645806732    0.919761661459
 H    4.717192710327   -0.158424193268    0.804801661459
 H    4.088082710327    1.182035806732    1.821661661459
 H    3.840892710327    1.226745806732    0.039681661459
NA   -0.265027289673    0.167705806732    0.076281661459
 S   -2.066768183351    1.314144016406    0.604873359700
 S   -2.214072339808    0.242764670482   -1.196114238874
 C   -2.598035926418    2.984845748841    0.091703605705
 H   -3.646021832404    2.949905460311   -0.230005724580
 H   -2.504924700573    3.619399258601    0.985265104916
 H   -1.950899067498    3.363244617994   -0.707700490951
 C   -3.782636336519   -0.664183998566   -0.964142425207
 H   -4.609999500574    0.052487425350   -0.895973346397
 H   -3.905675487863   -1.289030627585   -1.860808524454
 H   -3.730931358785   -1.295314349335   -0.069728668763
