21

 H    3.771284829263   -3.092991815201    0.092926575301
 H    2.564584829263   -3.710051815201   -1.086183424699
 H    2.086734829263   -3.472031815201    0.632446575301
 C    2.710534829263   -3.095141815201   -0.185983424699
 S    2.202814829263   -1.402021815201   -0.646863424699
 S    2.451244829263   -0.369091815201    1.165446575301
 C    4.032314829263    0.501868184799    0.885436575301
 H    4.837144829263   -0.234201815201    0.770476575301
 H    4.208034829263    1.106258184799    1.787336575301
 H    3.960844829263    1.150968184799    0.005356575301
NA   -0.145075170737    0.091928184799    0.041956575301
 S   -2.192508004462    1.394698877610    0.642628959666
 S   -2.388444602517    0.341434028771   -1.164399140654
 C   -2.712804544368    3.076362529076    0.154641496815
 H   -3.767246529012    3.057231139521   -0.146652822835
 H   -2.594282531105    3.701669734453    1.051705285671
 H   -2.076773641767    3.453921330077   -0.654019600817
 C   -3.963375939040   -0.548161196898   -0.909504177770
 H   -4.780223088469    0.178011266166   -0.818790084283
 H   -4.111757297139   -1.163365930212   -1.808997448883
 H   -3.902051153780   -1.187888035624   -0.021830963898
