21

 H    3.850572697031   -3.143201011342    0.070047107823
 H    2.643872697031   -3.760261011342   -1.109062892177
 H    2.166022697031   -3.522241011342    0.609567107823
 C    2.789822697031   -3.145351011342   -0.208862892177
 S    2.282102697031   -1.452231011342   -0.669742892177
 S    2.530532697031   -0.419301011342    1.142567107823
 C    4.111602697031    0.451658988658    0.862557107823
 H    4.916432697031   -0.284411011342    0.747597107823
 H    4.287322697031    1.056048988658    1.764457107823
 H    4.040132697031    1.100758988658   -0.017522892177
NA   -0.065787302969    0.041718988658    0.019077107823
 S   -2.277014763392    1.448711336893    0.667803282937
 S   -2.502438996175    0.406770156664   -1.142348931606
 C   -2.790339351548    3.136857855216    0.195053782814
 H   -3.848411118663    3.127279644842   -0.093710081997
 H   -2.656405199806    3.756379674183    1.093961102186
 H   -2.161148131261    3.514013751840   -0.619127134462
 C   -4.080912793043   -0.472345117553   -0.873394233482
 H   -4.891098627132    0.259437037723   -0.769046019016
 H   -4.244655759491   -1.081527517461   -1.774319913370
 H   -4.013861674817   -1.117322628251    0.010055284225
