21

 H    3.890034188230   -3.168219959284    0.058612720997
 H    2.683334188230   -3.785279959284   -1.120497279003
 H    2.205484188230   -3.547259959284    0.598132720997
 C    2.829284188230   -3.170369959284   -0.220297279003
 S    2.321564188230   -1.477249959284   -0.681177279003
 S    2.569994188230   -0.444319959284    1.131132720997
 C    4.151064188230    0.426640040716    0.851122720997
 H    4.955894188230   -0.309429959284    0.736162720997
 H    4.326784188230    1.031030040716    1.753022720997
 H    4.079594188230    1.075740040716   -0.028957279003
NA   -0.026325811770    0.016700040716    0.007642720997
 S   -2.319450585542    1.475803216664    0.680395791485
 S   -2.558824962295    0.439309013039   -1.131092055895
 C   -2.829392339529    3.166973394202    0.214846945344
 H   -3.889106023280    3.161906097306   -0.067948753128
 H   -2.688165715511    3.783710916206    1.114552385820
 H   -2.203464816662    3.543966824533   -0.601920719114
 C   -4.138890505309   -0.434859481188   -0.855443464608
 H   -4.945849618941    0.299536581325   -0.744654608256
 H   -4.309899673924   -1.041146258604   -1.756972301574
 H   -4.069158502192   -1.082331129318    0.025971763709
