21

 H    3.929382586478   -3.193184765209    0.047183309105
 H    2.722682586478   -3.810244765209   -1.131926690895
 H    2.244832586478   -3.572224765209    0.586703309105
 C    2.868632586478   -3.195334765209   -0.231726690895
 S    2.360912586478   -1.502214765209   -0.692606690895
 S    2.609342586478   -0.469284765209    1.119703309105
 C    4.190412586478    0.401675234791    0.839693309105
 H    4.995242586478   -0.334394765209    0.724733309105
 H    4.366132586478    1.006065234791    1.741593309105
 H    4.118942586478    1.050775234791   -0.040386690895
NA    0.013022586478   -0.008264765209   -0.003786690895
 S   -2.361999500643    1.502949238451    0.692993274969
 S   -2.614829433988    0.471763805415   -1.119695935872
 C   -2.868626749572    3.197009443433    0.234384789940
 H   -3.929878170697    3.196287910812   -0.042629788469
 H   -2.720365450250    3.811032487471    1.134814853028
 H   -2.245864280139    3.573863351709   -0.584862893354
 C   -4.196378912575   -0.397640083658   -0.837564854906
 H   -5.000179691242    0.339252817148   -0.720569473138
 H   -4.374395973560   -1.001105474956   -1.739629976505
 H   -4.124078264658   -1.047523625362    0.041866149001
