21

 H    4.124621873305   -3.317267554057   -0.009863081119
 H    2.917921873305   -3.934327554057   -1.188973081119
 H    2.440071873305   -3.696307554057    0.529656918881
 C    3.063871873305   -3.319417554057   -0.288773081119
 S    2.556151873305   -1.626297554057   -0.749653081119
 S    2.804581873305   -0.593367554057    1.062656918881
 C    4.385651873305    0.277592445943    0.782646918881
 H    5.190481873305   -0.458477554057    0.667686918881
 H    4.561371873305    0.881982445943    1.684546918881
 H    4.314181873305    0.926692445943   -0.097433081119
NA    0.208261873305   -0.132347554057   -0.060833081119
 S   -2.576246780561    1.639420588166    0.756081361618
 S   -2.889728551320    0.632838127134   -1.060957294037
 C   -3.067300872365    3.346183683546    0.328695698347
 H   -4.134920093386    3.364986975261    0.078040933325
 H   -2.887321100943    3.947616713186    1.231837770636
 H   -2.459014374937    3.722619402812   -0.501546684579
 C   -4.477336975197   -0.215172265611   -0.749288096602
 H   -5.266337104919    0.532676158655   -0.604387137245
 H   -4.686934073256   -0.805571515504   -1.653212771733
 H   -4.393668800512   -0.876003400443    0.120928393635
