21

 H    4.317777234375   -3.440278558601   -0.066700466314
 H    3.111077234375   -4.057338558601   -1.245810466314
 H    2.633227234375   -3.819318558601    0.472819533686
 C    3.257027234375   -3.442428558601   -0.345610466314
 S    2.749307234375   -1.749308558601   -0.806490466314
 S    2.997737234375   -0.716378558601    1.005819533686
 C    4.578807234375    0.154581441399    0.725809533686
 H    5.383637234375   -0.581488558601    0.610849533686
 H    4.754527234375    0.758971441399    1.627709533686
 H    4.507337234375    0.803681441399   -0.154270466314
NA    0.401417234375   -0.255358558601   -0.117670466314
 S   -2.792577986236    1.776963722183    0.819378453295
 S   -3.157414032278    0.792082861595   -0.999965631136
 C   -3.269628447996    3.494063602047    0.418350088329
 H   -4.341910931309    3.529315969837    0.190403334362
 H   -3.062780574224    4.084378715774    1.323072163677
 H   -2.673869285630    3.870417538971   -0.420963597202
 C   -4.749338481516   -0.037921156410   -0.662875583208
 H   -5.525077667207    0.718816801038   -0.494438241919
 H   -4.985663583294   -0.616806805561   -1.567653946994
 H   -4.656317781558   -0.708119661814    0.199189382345
