21

 H    4.356200079320   -3.464769353197   -0.078040232709
 H    3.149500079320   -4.081829353197   -1.257150232709
 H    2.671650079320   -3.843809353197    0.461479767291
 C    3.295450079320   -3.466919353197   -0.356950232709
 S    2.787730079320   -1.773799353197   -0.817830232709
 S    3.036160079320   -0.740869353197    0.994479767291
 C    4.617230079320    0.130090646803    0.714469767291
 H    5.422060079320   -0.605979353197    0.599509767291
 H    4.792950079320    0.734480646803    1.616369767291
 H    4.545760079320    0.779190646803   -0.165610232709
NA    0.439840079320   -0.279849353197   -0.129010232709
 S   -2.836052454640    1.804583755300    0.832065582274
 S   -3.210219633456    0.823732670829   -0.987560373792
 C   -3.310477081221    3.523520171041    0.435818484706
 H   -4.383534415670    3.561753126495    0.212036505534
 H   -3.098746059259    4.111769591367    1.340756385241
 H   -2.717021057364    3.899886339756   -0.405119790613
 C   -4.802847311233   -0.003010275552   -0.645810460860
 H   -5.576104423532    0.755304459587   -0.473105628416
 H   -5.044027828254   -0.579759076588   -1.550672226442
 H   -4.708154350722   -0.674920591297    0.214738586507
