21

 H    4.432862419473   -3.513650338529   -0.100691396362
 H    3.226162419473   -4.130710338529   -1.279801396362
 H    2.748312419473   -3.892690338529    0.438828603638
 C    3.372112419473   -3.515800338529   -0.379601396362
 S    2.864392419473   -1.822680338529   -0.840481396362
 S    3.112822419473   -0.789750338529    0.971828603638
 C    4.693892419473    0.081209661471    0.691818603638
 H    5.498722419473   -0.654860338529    0.576858603638
 H    4.869612419473    0.685599661471    1.593718603638
 H    4.622422419473    0.730309661471   -0.188261396362
NA    0.516502419473   -0.328730338529   -0.151661396362
 S   -2.923184741184    1.859924425393    0.857468209371
 S   -3.315180511445    0.886847452129   -0.962578237234
 C   -3.392522195414    3.582333925773    0.470349678354
 H   -4.466997561527    3.626254670564    0.254558501766
 H   -3.171460135044    4.166597262899    1.375638542947
 H   -2.803489862827    3.958746808766   -0.373672229408
 C   -4.909082025498    0.066326067574   -0.611889709636
 H   -5.677534240168    0.827620343735   -0.431039005316
 H   -5.159538630936   -0.506301337106   -1.516849034856
 H   -4.811217303567   -0.608863329415    0.245732973422
