21

 H    4.471107349088   -3.538042967777   -0.112002774433
 H    3.264407349088   -4.155102967777   -1.291112774433
 H    2.786557349088   -3.917082967777    0.427517225567
 C    3.410357349088   -3.540192967777   -0.390912774433
 S    2.902637349088   -1.847072967777   -0.851792774433
 S    3.151067349088   -0.814142967777    0.960517225567
 C    4.732137349088    0.056817032223    0.680507225567
 H    5.536967349088   -0.679252967777    0.565547225567
 H    4.907857349088    0.661207032223    1.582407225567
 H    4.660667349088    0.705917032223   -0.199572774433
NA    0.554747349088   -0.353122967777   -0.162972774433
 S   -2.966837124918    1.887642623858    0.870183726675
 S   -3.367353715141    0.918315846172   -0.950008737494
 C   -3.433710641869    3.611695306259    0.487424850260
 H   -4.508834668098    3.658331116816    0.275468237960
 H   -3.208188523638    4.194035307026    1.392852874841
 H   -2.846803313908    3.988141379095   -0.358061323922
 C   -4.961831553807    0.100763639214   -0.595031789932
 H   -5.727958273500    0.863466504895   -0.410291576508
 H   -5.216721041841   -0.469876056295   -1.500008984617
 H   -4.862461820476   -0.575996838211    0.261178350392
