21

 H    4.509298155452   -3.562405225288   -0.123304710778
 H    3.302598155452   -4.179465225288   -1.302414710778
 H    2.824748155452   -3.941445225288    0.416215289222
 C    3.448548155452   -3.564555225288   -0.402214710778
 S    2.940828155452   -1.871435225288   -0.863094710778
 S    3.189258155452   -0.838505225288    0.949215289222
 C    4.770328155452    0.032454774712    0.669205289222
 H    5.575158155452   -0.703615225288    0.554245289222
 H    4.946048155452    0.636844774712    1.571105289222
 H    4.698858155452    0.681554774712   -0.210874710778
NA    0.592938155452   -0.377485225288   -0.174274710778
 S   -3.010543631904    1.915391194059    0.882908685704
 S   -3.419333275150    0.949727125513   -0.937391421941
 C   -3.475004594168    3.641028899911    0.504380730761
 H   -4.550740369643    3.690298778499    0.296156821165
 H   -3.245151812457    4.221490144817    1.409926119961
 H   -2.890167181764    4.017513944997   -0.342521235219
 C   -5.014350506618    0.135055091961   -0.578240574152
 H   -5.778201283762    0.899116009290   -0.389726215904
 H   -5.273543705986   -0.433643531423   -1.483217257422
 H   -4.913526274996   -0.543233210138    0.276589435647
