21

 H    4.585526682714   -3.611042938567   -0.145880458903
 H    3.378826682714   -4.228102938567   -1.324990458903
 H    2.900976682714   -3.990082938567    0.393639541097
 C    3.524776682714   -3.613192938567   -0.424790458903
 S    3.017056682714   -1.920072938567   -0.885670458903
 S    3.265486682714   -0.887142938567    0.926639541097
 C    4.846556682714   -0.016182938567    0.646629541097
 H    5.651386682714   -0.752252938567    0.531669541097
 H    5.022276682714    0.588207061433    1.548529541097
 H    4.775086682714    0.632917061433   -0.233450458903
NA    0.669166682714   -0.426122938567   -0.196850458903
 S   -3.098109731340    1.970975136205    0.908386728329
 S   -3.522742456811    1.012384744364   -0.912025328523
 C   -3.557894672403    3.699619554174    0.537955662951
 H   -4.634752147301    3.753928075693    0.336906566096
 H   -3.319747760371    4.276451625757    1.443676822847
 H   -2.977039690084    4.076197854412   -0.311641301147
 C   -5.118736960633    0.203220946999   -0.544853277297
 H   -5.878179391074    0.969856126228   -0.349117600391
 H   -5.386171111285   -0.361729675844   -1.449779685860
 H   -5.015145963254   -0.477999874249    0.307309846794
