21

 H    4.699518366603   -3.683797482392   -0.179674917736
 H    3.492818366603   -4.300857482392   -1.358784917736
 H    3.014968366603   -4.062837482392    0.359845082264
 C    3.638768366603   -3.685947482392   -0.458584917736
 S    3.131048366603   -1.992827482392   -0.919464917736
 S    3.379478366603   -0.959897482392    0.892845082264
 C    4.960548366603   -0.088937482392    0.612835082264
 H    5.765378366603   -0.825007482392    0.497875082264
 H    5.136268366603    0.515452517608    1.514735082264
 H    4.889078366603    0.560162517608   -0.267244917736
NA    0.783158366603   -0.498877482392   -0.230644917736
 S   -3.229809987498    2.054553075517    0.946672955619
 S   -3.676587621688    1.105981737453   -0.873687093874
 C   -3.682935162015    3.787336770286    0.587547443627
 H   -4.761250248173    3.848675611142    0.396585935294
 H   -3.433193204842    4.359026798433    1.493405863329
 H   -3.107687620341    4.164086639154   -0.265780471190
 C   -5.273824884493    0.304500868668   -0.495241106079
 H   -6.026995106205    1.074675743443   -0.289425562956
 H   -5.552776284257   -0.255142746663   -1.399988129555
 H   -5.166407837343   -0.380833757220    0.353141425943
