21

 H    4.737429623982   -3.707998822002   -0.190921682047
 H    3.530729623982   -4.325058822002   -1.370031682047
 H    3.052879623982   -4.087038822002    0.348598317953
 C    3.676679623982   -3.710148822002   -0.469831682047
 S    3.168959623982   -2.017028822002   -0.930711682047
 S    3.417389623982   -0.984098822002    0.881598317953
 C    4.998459623982   -0.113138822002    0.601588317953
 H    5.803289623982   -0.849208822002    0.486628317953
 H    5.174179623982    0.491251177998    1.503488317953
 H    4.926989623982    0.535961177998   -0.278491682047
NA    0.821069623982   -0.523078822002   -0.241891682047
 S   -3.273796043468    2.082462563620    0.959453086682
 S   -3.727556960949    1.137082700940   -0.860839882212
 C   -3.724791003745    3.816536146162    0.603889806612
 H   -4.803538937033    3.880088918600    0.416123681762
 H   -3.471392171400    4.386587808594    1.509765153403
 H   -3.151321691338    4.193350138340   -0.250605887425
 C   -5.325156163739    0.338020643820   -0.478823601779
 H   -6.076321645800    1.109297518399   -0.269832789299
 H   -5.607739063989   -0.219932859538   -1.383487533123
 H   -5.216542616134   -0.348614854588    0.368353877680
