21

 H    4.775300797644   -3.732176501280   -0.202159606609
 H    3.568600797644   -4.349236501280   -1.381269606609
 H    3.090750797644   -4.111216501280    0.337360393391
 C    3.714550797644   -3.734326501280   -0.481069606609
 S    3.206830797644   -2.041206501280   -0.941949606609
 S    3.455260797644   -1.008276501280    0.870360393391
 C    5.036330797644   -0.137316501280    0.590350393391
 H    5.841160797644   -0.873386501280    0.475390393391
 H    5.212050797644    0.467073498720    1.492250393391
 H    4.964860797644    0.511783498720   -0.289729606609
NA    0.858940797644   -0.547256501280   -0.253129606609
 S   -3.317822183155    2.110395712054    0.972242057495
 S   -3.778379991340    1.168136948209   -0.847962182384
 C   -3.766729870634    3.845717625873    0.620144580163
 H   -4.845886701798    3.911423829696    0.435495170114
 H   -3.509771567500    4.414166860354    1.526024212492
 H   -3.194995926807    4.222598663934   -0.235483673651
 C   -5.376317618515    0.371427310002   -0.462463914622
 H   -6.125519461096    1.143770191774   -0.250384140835
 H   -5.662434902687   -0.184873527189   -1.367034704742
 H   -5.266544142824   -0.316476006426    0.383534728038
