21

 H    4.813133494417   -3.756331322361   -0.213388814155
 H    3.606433494417   -4.373391322361   -1.392498814155
 H    3.128583494417   -4.135371322361    0.326131185845
 C    3.752383494417   -3.758481322361   -0.492298814155
 S    3.244663494417   -2.065361322361   -0.953178814155
 S    3.493093494417   -1.032431322361    0.859131185845
 C    5.074163494417   -0.161471322361    0.579121185845
 H    5.878993494417   -0.897541322361    0.464161185845
 H    5.249883494417    0.442918677639    1.481021185845
 H    5.002693494417    0.487628677639   -0.300958814155
NA    0.896773494417   -0.571411322361   -0.264358814155
 S   -3.361886799731    2.138351718685    0.985039745324
 S   -3.829062214755    1.199145798105   -0.835055834020
 C   -3.808749047313    3.874882263214    0.636315370491
 H   -4.888292211841    3.942683759131    0.454706755132
 H   -3.548324970610    4.441763933198    1.542187592446
 H   -3.238709071011    4.251832982061   -0.220411720873
 C   -5.427316174395    0.404724787823   -0.446160782216
 H   -6.174594382013    1.178099307042   -0.231075004346
 H   -5.716874436922   -0.149959692355   -1.350629231722
 H   -5.316417771879   -0.284414489366    0.398684465775
