21

 H    4.888689480708   -3.804575431538   -0.235821593195
 H    3.681989480708   -4.421635431538   -1.414931593195
 H    3.204139480708   -4.183615431538    0.303698406805
 C    3.827939480708   -3.806725431538   -0.514731593195
 S    3.320219480708   -2.113605431538   -0.975611593195
 S    3.568649480708   -1.080675431538    0.836698406805
 C    5.149719480708   -0.209715431538    0.556688406805
 H    5.954549480708   -0.945785431538    0.441728406805
 H    5.325439480708    0.394674568462    1.458588406805
 H    5.078249480708    0.439384568462   -0.323391593195
NA    0.972329480708   -0.619655431538   -0.286791593195
 S   -3.450125440138    2.194329264934    1.010660757033
 S   -3.930024951344    1.261032380956   -0.809163941420
 C   -3.893018005833    3.933164881350    0.668418497319
 H   -4.973271233782    4.004991409016    0.492674110413
 H   -3.625929530036    4.497011898663    1.574244251625
 H   -3.326247294320    4.310261828510   -0.190410694729
 C   -5.528850522995    0.471007020778   -0.413719199250
 H   -6.272397236208    1.246347746488   -0.192857698018
 H   -5.825024479865   -0.080549325569   -1.317958448662
 H   -5.415801406007   -0.220513124488    0.428892620000
