21

 H    5.001770608005   -3.876788357672   -0.269408690650
 H    3.795070608005   -4.493848357672   -1.448518690650
 H    3.317220608005   -4.255828357672    0.270111309350
 C    3.941020608005   -3.878938357672   -0.548318690650
 S    3.433300608005   -2.185818357672   -1.009198690650
 S    3.681730608005   -1.152888357672    0.803111309350
 C    5.262800608005   -0.281928357672    0.523101309350
 H    6.067630608005   -1.017998357672    0.408141309350
 H    5.438520608005    0.322461642328    1.425001309350
 H    5.191330608005    0.367171642328   -0.356978690650
NA    1.085410608005   -0.691868357672   -0.320378690650
 S   -3.582736252888    2.278448821936    1.049154345702
 S   -4.080536233111    1.353552478346   -0.770150598748
 C   -4.019961867693    4.020485080701    0.716023253026
 H   -5.101140684530    4.097965761743    0.548567927076
 H   -3.743496608690    4.580016796078    1.621711516201
 H   -3.457817642195    4.397815161595   -0.145739247835
 C   -5.680083986178    0.569700154729   -0.365450286393
 H   -6.418307755383    1.347768049001   -0.136472608693
 H   -5.985563903383    0.022589870560   -1.269294517022
 H   -5.564036638616   -0.125179300276    0.473984313940
