21

 H    5.152124582016   -3.972812961269   -0.314081461117
 H    3.945424582016   -4.589872961269   -1.493191461117
 H    3.467574582016   -4.351852961269    0.225438538883
 C    4.091374582016   -3.974962961269   -0.592991461117
 S    3.583654582016   -2.281842961269   -1.053871461117
 S    3.832084582016   -1.248912961269    0.758438538883
 C    5.413154582016   -0.377952961269    0.478428538883
 H    6.217984582016   -1.114022961269    0.363468538883
 H    5.588874582016    0.226437038731    1.380328538883
 H    5.341684582016    0.271147038731   -0.401651461117
NA    1.235764582016   -0.787892961269   -0.365051461117
 S   -3.759971532273    2.390867529190    1.100589156733
 S   -4.279654772434    1.476380948905   -0.717858580205
 C   -4.190137621749    4.136749109329    0.778583669829
 H   -5.272330659961    4.221128652360    0.621324339859
 H   -3.902207365006    4.690931642476    1.683988494869
 H   -3.633692813857    4.514408049506   -0.086726464616
 C   -5.879954275463    0.700057807220   -0.301777214738
 H   -6.611553335377    1.481397397483   -0.062892266238
 H   -6.196808924085    0.158455358618   -1.205022450217
 H   -5.760285476250    0.001055828633    0.533716953121
