21

 H    5.339483260928   -4.092476700822   -0.369758191729
 H    4.132783260928   -4.709536700822   -1.548868191729
 H    3.654933260928   -4.471516700822    0.169761808271
 C    4.278733260928   -4.094626700822   -0.648668191729
 S    3.771013260928   -2.401506700822   -1.109548191729
 S    4.019443260928   -1.368576700822    0.702761808271
 C    5.600513260928   -0.497616700822    0.422751808271
 H    6.405343260928   -1.233686700822    0.307791808271
 H    5.776233260928    0.106773299178    1.324651808271
 H    5.529043260928    0.151483299178   -0.457328191729
NA    1.423123260928   -0.907556700822   -0.420728191729
 S   -3.982099420106    2.531757928199    1.165046902994
 S   -4.526366428104    1.629151291544   -0.652144124683
 C   -4.404160409546    4.281870042583    0.855523077939
 H   -5.487337491984    4.373982164203    0.709800940867
 H   -4.103347780981    4.829945629941    1.760456734644
 H   -3.854176031724    4.659956496017   -0.013721735668
 C   -6.127336831232    0.861263519298   -0.223189628328
 H   -6.851338160315    1.646196108749    0.026805699437
 H   -6.456967565581    0.325944658662   -1.125608229932
 H   -6.003657772576    0.157609381539    0.607803294003
