21

 H    5.638149115605   -4.283224265194   -0.458501034284
 H    4.431449115605   -4.900284265194   -1.637611034284
 H    3.953599115605   -4.662264265194    0.081018965716
 C    4.577399115605   -4.285374265194   -0.737411034284
 S    4.069679115605   -2.592254265194   -1.198291034284
 S    4.318109115605   -1.559324265194    0.614018965716
 C    5.899179115605   -0.688364265194    0.334008965716
 H    6.704009115605   -1.424434265194    0.219048965716
 H    6.074899115605   -0.083974265194    1.235908965716
 H    5.827709115605   -0.039264265194   -0.546071034284
NA    1.721789115605   -1.098304265194   -0.509471034284
 S   -4.338612072220    2.757896985526    1.268519223436
 S   -4.916910827023    1.872063939749   -0.546412982681
 C   -4.749144794449    4.513707633978    0.976244112006
 H   -5.833409553233    4.616492925610    0.846639741774
 H   -4.430494391122    5.053156680435    1.880255537120
 H   -4.208205642987    4.892488540221    0.101642152493
 C   -6.518503102022    1.115812831338   -0.099483158111
 H   -7.231711919694    1.905573561573    0.165857999220
 H   -6.865815851389    0.589362230575   -1.000485741450
 H   -6.389375256475    0.405681696125    0.725146857353
