21

 H    5.675400497632   -4.307013892613   -0.469567126384
 H    4.468700497632   -4.924073892613   -1.648677126384
 H    3.990850497632   -4.686053892613    0.069952873616
 C    4.614650497632   -4.309163892613   -0.748477126384
 S    4.106930497632   -2.616043892613   -1.209357126384
 S    4.355360497632   -1.583113892613    0.602952873616
 C    5.936430497632   -0.712153892613    0.322942873616
 H    6.741260497632   -1.448223892613    0.207982873616
 H    6.112150497632   -0.107763892613    1.224842873616
 H    5.864960497632   -0.063053892613   -0.557137126384
NA    1.759040497632   -1.122093892613   -0.520537126384
 S   -4.383258003543    2.786218185819    1.281480026711
 S   -4.965416457723    1.902311793760   -0.533157560220
 C   -4.792460430259    4.542663443330    0.991158960758
 H   -5.876828220183    4.646656920833    0.863393437580
 H   -4.471786629996    5.081121335519    1.895045802218
 H   -4.252554687441    4.921530709837    0.115956063515
 C   -6.567056542384    1.147377450191   -0.084177606873
 H   -7.279020982579    1.937674974254    0.182901440895
 H   -6.916374384597    0.621945210132   -0.984999477344
 H   -6.437318327139    0.436508994167    0.739721006935
