21

 H    5.712635580447   -4.330792661767   -0.480627665537
 H    4.505935580447   -4.947852661767   -1.659737665537
 H    4.028085580447   -4.709832661767    0.058892334463
 C    4.651885580447   -4.332942661767   -0.759537665537
 S    4.144165580447   -2.639822661767   -1.220417665537
 S    4.392595580447   -1.606892661767    0.591892334463
 C    5.973665580447   -0.735932661767    0.311882334463
 H    6.778495580447   -1.472002661767    0.196922334463
 H    6.149385580447   -0.131542661767    1.213782334463
 H    5.902195580447   -0.086832661767   -0.568197665537
NA    1.796275580447   -1.145872661767   -0.531597665537
 S   -4.427920234077    2.814550244377    1.294446382933
 S   -5.013859524319    1.932535968553   -0.519894961190
 C   -4.835815008322    4.571614819926    1.006038996591
 H   -5.920279681853    4.676791338024    0.880076907041
 H   -4.513159088248    5.109099268546    1.909799824871
 H   -4.296923059895    4.950568193324    0.130248760970
 C   -6.615541923659    1.178890887727   -0.068904488794
 H   -7.326283365593    1.969712092211    0.199876432507
 H   -6.966823828588    0.654458700406   -0.969545338563
 H   -6.485207321985    0.467299632456    0.754275727883
