21

 H    5.749854868163   -4.354560870822   -0.491682763868
 H    4.543154868163   -4.971620870822   -1.670792763868
 H    4.065304868163   -4.733600870822    0.047837236132
 C    4.689104868163   -4.356710870822   -0.770592763868
 S    4.181384868163   -2.663590870822   -1.231472763868
 S    4.429814868163   -1.630660870822    0.580837236132
 C    6.010884868163   -0.759700870822    0.300827236132
 H    6.815714868163   -1.495770870822    0.185867236132
 H    6.186604868163   -0.155310870822    1.202727236132
 H    5.939414868163   -0.110600870822   -0.579252763868
NA    1.833494868163   -1.169640870822   -0.542652763868
 S   -4.472598259709    2.842892863035    1.307418179976
 S   -5.062241868356    1.962737053930   -0.506625566487
 C   -4.879207481953    4.600561987453    1.020885320684
 H   -5.963763191011    4.706897162017    0.896692242377
 H   -4.554609493372    5.137090249726    1.924518863439
 H   -4.341310253763    4.979601178317    0.144520903450
 C   -6.663961381160    1.210354568983   -0.053663072399
 H   -7.373500684883    2.001686792402    0.216784791431
 H   -7.017167540810    0.686904598870   -0.954122718177
 H   -6.533043916806    0.498054619794    0.768811420830
