21

 H    5.787058844742   -4.378318807418   -0.502732531229
 H    4.580358844742   -4.995378807418   -1.681842531229
 H    4.102508844742   -4.757358807418    0.036787468771
 C    4.726308844742   -4.380468807418   -0.781642531229
 S    4.218588844742   -2.687348807418   -1.242522531229
 S    4.467018844742   -1.654418807418    0.569787468771
 C    6.048088844742   -0.783458807418    0.289777468771
 H    6.852918844742   -1.519528807418    0.174817468771
 H    6.223808844742   -0.179068807418    1.191677468771
 H    5.976618844742   -0.134358807418   -0.590302531229
NA    1.870698844742   -1.193398807418   -0.553702531229
 S   -4.517291596480    2.871245754152    1.320395307989
 S   -5.110565261223    1.992915621395   -0.493349735895
 C   -4.922636840467    4.629505157452    1.035698989287
 H   -6.007278020405    4.736975335682    0.913241455121
 H   -4.596135655993    5.165094051759    1.939204120889
 H   -4.385715779335    5.008629843366    0.158773123125
 C   -6.712316963712    1.241769867877   -0.038452645396
 H   -7.420674485605    2.033600880881    0.233628273490
 H   -7.067408745102    0.719284736463   -0.938731019201
 H   -6.580829720280    0.528774929284    0.783328477809
