21

 H    5.824247974966   -4.402066749116   -0.513777075203
 H    4.617547974966   -5.019126749116   -1.692887075203
 H    4.139697974966   -4.781106749116    0.025742924797
 C    4.763497974966   -4.404216749116   -0.792687075203
 S    4.255777974966   -2.711096749116   -1.253567075203
 S    4.504207974966   -1.678166749116    0.558742924797
 C    6.085277974966   -0.807206749116    0.278732924797
 H    6.890107974966   -1.543276749116    0.163772924797
 H    6.260997974966   -0.202816749116    1.180632924797
 H    6.013807974966   -0.158106749116   -0.601347075203
NA    1.907887974966   -1.217146749116   -0.564747075203
 S   -4.561999779605    2.899608640166    1.333377659390
 S   -5.158831407390    2.023072224796   -0.480067809381
 C   -4.966102107710    4.658444530050    1.050481015940
 H   -6.050823462258    4.767026762078    0.929726479893
 H   -4.637735466182    5.193110450023    1.953856747711
 H   -4.430139163113    5.037654358454    0.173006027031
 C   -6.760610637900    1.273138109411   -0.023272514212
 H   -7.467806245658    2.065456096047    0.250408575417
 H   -7.117550538143    0.751600880383   -0.923369654777
 H   -6.628566277227    0.559461499846    0.797827282326
