21

 H    5.898583465087   -4.449533710190   -0.535850912073
 H    4.691883465087   -5.066593710190   -1.714960912073
 H    4.214033465087   -4.828573710190    0.003669087927
 C    4.837833465087   -4.451683710190   -0.814760912073
 S    4.330113465087   -2.758563710190   -1.275640912073
 S    4.578543465087   -1.725633710190    0.536669087927
 C    6.159613465087   -0.854673710190    0.256659087927
 H    6.964443465087   -1.590743710190    0.141699087927
 H    6.335333465087   -0.250283710190    1.158559087927
 H    6.088143465087   -0.205573710190   -0.623420912073
NA    1.982223465087   -1.264613710190   -0.586820912073
 S   -4.651458916182    2.956363334517    1.359357613269
 S   -5.255198461159    2.083321670198   -0.453486936546
 C   -5.053136628024    4.716312630585    1.079953996473
 H   -6.138003446557    4.827052798305    0.962511340679
 H   -4.721147966099    5.249180151091    1.983068465377
 H   -4.519037688595    5.095691578689    0.201416197209
 C   -6.857019740101    1.335738488329    0.006999544163
 H   -7.561949239934    2.128996540022    0.283786144432
 H   -7.217547677579    0.816047953132   -0.892735633556
 H   -6.723897529822    0.620737017538    0.826771625901
