21

 H    6.009985967847   -4.520665594977   -0.568925053031
 H    4.803285967847   -5.137725594977   -1.748035053031
 H    4.325435967847   -4.899705594977   -0.029405053031
 C    4.949235967847   -4.522815594977   -0.847835053031
 S    4.441515967847   -2.829695594977   -1.308715053031
 S    4.689945967847   -1.796765594977    0.503594946969
 C    6.271015967847   -0.925805594977    0.223584946969
 H    7.075845967847   -1.661875594977    0.108624946969
 H    6.446735967847   -0.321415594977    1.125484946969
 H    6.199545967847   -0.276705594977   -0.656495053031
NA    2.093625967847   -1.335745594977   -0.619895053031
 S   -4.785748353469    3.041563932867    1.398364158435
 S   -5.399358783077    2.173544005705   -0.413577395348
 C   -5.183935154452    4.803090720674    1.123949258397
 H   -6.268986385860    4.916911751130    1.011251546150
 H   -4.846770520355    5.333373728911    2.026667348771
 H   -4.652508440114    5.182720092147    0.243900444011
 C   -7.001213942751    1.429316663697    0.052196727198
 H   -7.702881879637    2.223905554086    0.333417921306
 H   -7.366868556492    0.912279409778   -0.846998033469
 H   -6.866560336294    0.712418914169    0.870060355861
