21

 H    6.084191606685   -4.568043869160   -0.590951197143
 H    4.877491606685   -5.185103869160   -1.770061197143
 H    4.399641606685   -4.947083869160   -0.051431197143
 C    5.023441606685   -4.570193869160   -0.869861197143
 S    4.515721606685   -2.877073869160   -1.330741197143
 S    4.764151606685   -1.844143869160    0.481568802857
 C    6.345221606685   -0.973183869160    0.201558802857
 H    7.150051606685   -1.709253869160    0.086598802857
 H    6.520941606685   -0.368793869160    1.103458802857
 H    6.273751606685   -0.324083869160   -0.678521197143
NA    2.167831606685   -1.383123869160   -0.641921197143
 S   -4.875337341329    3.098407314109    1.424391805072
 S   -5.495221990541    2.233596546202   -0.386948556368
 C   -5.271289055639    4.860928523053    1.153146311175
 H   -6.356443108438    4.976706204147    1.043472310815
 H   -4.930834189172    5.389559690624    2.055598294702
 H   -4.741566230145    5.240722452918    0.272141755518
 C   -7.097082594603    1.491500145751    0.082194662698
 H   -7.796662976143    2.286927314994    0.366232805549
 H   -7.465995654487    0.976158296725   -0.816642346436
 H   -6.961460973042    0.773395130102    0.898838314705
