21

 H    6.158350361686   -4.615389774804   -0.612959571472
 H    4.951650361686   -5.232449774804   -1.792069571472
 H    4.473800361686   -4.994429774804   -0.073439571472
 C    5.097600361686   -4.617539774804   -0.891869571472
 S    4.589880361686   -2.924419774804   -1.352749571472
 S    4.838310361686   -1.891489774804    0.459560428528
 C    6.419380361686   -1.020529774804    0.179550428528
 H    7.224210361686   -1.756599774804    0.064590428528
 H    6.595100361686   -0.416139774804    1.081450428528
 H    6.347910361686   -0.371429774804   -0.700529571472
NA    2.241990361686   -1.430469774804   -0.663929571472
 S   -4.964973213026    3.155283063889    1.450437221493
 S   -5.590902418052    2.293576677613   -0.360303864843
 C   -5.358759726885    4.918756184739    1.182243963670
 H   -6.444002212968    5.036417688111    1.075488668129
 H   -5.015134891595    5.445789297606    2.084429133418
 H   -4.830682365176    5.298712621247    0.300322122175
 C   -7.192756392381    1.553531647108    0.112091118356
 H   -7.890314996817    2.349760771933    0.398841763617
 H   -7.564808464576    1.039829713634   -0.786390720761
 H   -7.056206162949    0.834262127429    0.927554351740
