21

 H    6.269506176827   -4.686351421808   -0.645940332299
 H    5.062806176827   -5.303411421808   -1.825050332299
 H    4.584956176827   -5.065391421808   -0.106420332299
 C    5.208756176827   -4.688501421808   -0.924850332299
 S    4.701036176827   -2.995381421808   -1.385730332299
 S    4.949466176827   -1.962451421808    0.426579667701
 C    6.530536176827   -1.091491421808    0.146569667701
 H    7.335366176827   -1.827561421808    0.031609667701
 H    6.706256176827   -0.487101421808    1.048469667701
 H    6.459066176827   -0.442391421808   -0.733510332299
NA    2.353146176827   -1.501431421808   -0.696910332299
 S   -5.099509337932    3.240653900023    1.489537146789
 S   -5.734101197020    2.383418303809   -0.320310596134
 C   -5.490172345506    5.005480745328    1.225716164672
 H   -6.575523321174    5.125839945101    1.123153507005
 H   -5.142004224776    5.530212162506    2.127501011258
 H   -4.964459927608    5.385676896975    0.342485691895
 C   -7.335925275377    1.646310463640    0.156754888216
 H   -8.030568137800    2.443679213543    0.447390620295
 H   -7.712475694910    1.134970031280   -0.741199887864
 H   -7.198051051752    0.925369600031    0.970517667985
