21

 H    6.454565463507   -4.804480296547   -0.700828863388
 H    5.247865463507   -5.421540296547   -1.879938863388
 H    4.770015463507   -5.183520296547   -0.161308863388
 C    5.393815463507   -4.806630296547   -0.979738863388
 S    4.886095463507   -3.113510296547   -1.440618863388
 S    5.134525463507   -2.080580296547    0.371691136612
 C    6.715595463507   -1.209620296547    0.091681136612
 H    7.520425463507   -1.945690296547   -0.023278863388
 H    6.891315463507   -0.605230296547    0.993581136612
 H    6.644125463507   -0.560520296547   -0.788398863388
NA    2.538205463507   -1.619560296547   -0.751798863388
 S   -5.323936617996    3.383079163846    1.554783092573
 S   -5.971979130830    2.532836592958   -0.253596574369
 C   -5.709701630017    5.149983338840    1.297746360006
 H   -6.795178239147    5.274526436474    1.201716552321
 H   -5.354478372429    5.671113955823    2.198867510191
 H   -5.187677200125    5.530567708184    0.412497942607
 C   -7.573708929275    1.800283052238    0.230745025279
 H   -8.263781603826    2.599398592174    0.527407823874
 H   -7.957243364154    1.292635842752   -0.666348996584
 H   -7.433794932126    1.076741303974    1.041846932577
