21

 H    6.491549598400   -4.828086477406   -0.711795342829
 H    5.284849598400   -5.445146477406   -1.890905342829
 H    4.806999598400   -5.207126477406   -0.172275342829
 C    5.430799598400   -4.830236477406   -0.990705342829
 S    4.923079598400   -3.137116477406   -1.451585342829
 S    5.171509598400   -2.104186477406    0.360724657171
 C    6.752579598400   -1.233226477406    0.080714657171
 H    7.557409598400   -1.969296477406   -0.034245342829
 H    6.928299598400   -0.628836477406    0.982614657171
 H    6.681109598400   -0.584126477406   -0.799365342829
NA    2.575189598400   -1.643166477406   -0.762765342829
 S   -5.368849796452    3.411583810700    1.567843508506
 S   -6.019445511600    2.562675714799   -0.240246314413
 C   -5.753678436813    5.178878906299    1.312093918813
 H   -6.839172984173    5.304215520149    1.217307332311
 H   -5.397115877161    5.699322304819    2.213083275016
 H   -5.232356254714    5.559539176302    0.426464385999
 C   -7.621150808814    1.830985797747    0.245479769466
 H   -8.310350054948    2.630429776956    0.543285883630
 H   -8.006010859808    1.324043289910   -0.651445016119
 H   -7.480851832203    1.106949554808    1.056073754254
