21

 H    6.528525047534   -4.851686482842   -0.722758247223
 H    5.321825047534   -5.468746482842   -1.901868247223
 H    4.843975047534   -5.230726482842   -0.183238247223
 C    5.467775047534   -4.853836482842   -1.001668247223
 S    4.960055047534   -3.160716482842   -1.462548247223
 S    5.208485047534   -2.127786482842    0.349761752777
 C    6.789555047534   -1.256826482842    0.069751752777
 H    7.594385047534   -1.992896482842   -0.045208247223
 H    6.965275047534   -0.652436482842    0.971651752777
 H    6.718085047534   -0.607726482842   -0.810328247223
NA    2.612165047534   -1.666766482842   -0.773728247223
 S   -5.413771660668    3.440094632976    1.580907499487
 S   -6.066877586616    2.592500745344   -0.226893871997
 C   -5.797677625345    5.207773006086    1.326423178703
 H   -6.883187964263    5.333889565251    1.232859864812
 H   -5.439798285071    5.727539598165    2.227281146178
 H   -5.277046551284    5.588508588304    0.440419550462
 C   -7.668556733432    1.861659637471    0.260194424000
 H   -8.356895411644    2.661425546620    0.559124370712
 H   -8.054720051594    1.355411105996   -0.636562149540
 H   -7.527879949662    1.137136978168    1.070288153616
