8

 C    1.803539240521   -2.283997994963    0.000000000000
 H    2.839039240521   -2.660085994963    0.000000000000
 H    1.270339240521   -2.664700994963    0.888337000000
 H    1.270339240521   -2.664700994963   -0.888337000000
 C    1.761773240521   -0.727913994963    0.000000000000
 O    0.594577240521   -0.221690994963    0.000000000000
 O    2.885844240521   -0.132495994963    0.000000000000
CS   -0.781567699860    0.375154967630    0.000000000000
