8

 C    1.930604927964   -2.339107482568    0.000000000000
 H    2.966104927964   -2.715195482568    0.000000000000
 H    1.397404927964   -2.719810482568    0.888337000000
 H    1.397404927964   -2.719810482568   -0.888337000000
 C    1.888838927964   -0.783023482568    0.000000000000
 O    0.721642927964   -0.276800482568    0.000000000000
 O    3.012909927964   -0.187605482568    0.000000000000
CS   -0.837988004468    0.399624941704    0.000000000000
