8

 C    1.994137771685   -2.366662226370    0.000000000000
 H    3.029637771685   -2.742750226370    0.000000000000
 H    1.460937771685   -2.747365226370    0.888337000000
 H    1.460937771685   -2.747365226370   -0.888337000000
 C    1.952371771685   -0.810578226370    0.000000000000
 O    0.785175771685   -0.304355226370    0.000000000000
 O    3.076442771685   -0.215160226370    0.000000000000
CS   -0.866198156772    0.411859928741    0.000000000000
