8

 C    2.438867677735   -2.559545432987    0.000000000000
 H    3.474367677735   -2.935633432987    0.000000000000
 H    1.905667677735   -2.940248432987    0.888337000000
 H    1.905667677735   -2.940248432987   -0.888337000000
 C    2.397101677735   -1.003461432987    0.000000000000
 O    1.229905677735   -0.497238432987    0.000000000000
 O    3.521172677735   -0.408043432987    0.000000000000
CS   -1.063669222900    0.497504838001    0.000000000000
