8

 C    2.883597583785   -2.752428639604    0.000000000000
 H    3.919097583785   -3.128516639604    0.000000000000
 H    2.350397583785   -3.133131639604    0.888337000000
 H    2.350397583785   -3.133131639604   -0.888337000000
 C    2.841831583785   -1.196344639604    0.000000000000
 O    1.674635583785   -0.690121639604    0.000000000000
 O    3.965902583785   -0.600926639604    0.000000000000
CS   -1.261140289028    0.583149747261    0.000000000000
