8

 C    2.947130427506   -2.779983383406    0.000000000000
 H    3.982630427506   -3.156071383406    0.000000000000
 H    2.413930427506   -3.160686383406    0.888337000000
 H    2.413930427506   -3.160686383406   -0.888337000000
 C    2.905364427506   -1.223899383406    0.000000000000
 O    1.738168427506   -0.717676383406    0.000000000000
 O    4.029435427506   -0.628481383406    0.000000000000
CS   -1.289350441332    0.595384734298    0.000000000000
