8

 C    3.328327489835   -2.945311846221    0.000000000000
 H    4.363827489835   -3.321399846221    0.000000000000
 H    2.795127489835   -3.326014846221    0.888337000000
 H    2.795127489835   -3.326014846221   -0.888337000000
 C    3.286561489835   -1.389227846221    0.000000000000
 O    2.119365489835   -0.883004846221    0.000000000000
 O    4.410632489835   -0.793809846221    0.000000000000
CS   -1.458611355156    0.668794656521    0.000000000000
