8

 C    3.582458864720   -3.055530821430    0.000000000000
 H    4.617958864720   -3.431618821430    0.000000000000
 H    3.049258864720   -3.436233821430    0.888337000000
 H    3.049258864720   -3.436233821430   -0.888337000000
 C    3.540692864720   -1.499446821430    0.000000000000
 O    2.373496864720   -0.993223821430    0.000000000000
 O    4.664763864720   -0.904028821430    0.000000000000
CS   -1.571451964372    0.717734604669    0.000000000000
