8

 C    3.645991708442   -3.083085565233    0.000000000000
 H    4.681491708442   -3.459173565233    0.000000000000
 H    3.112791708442   -3.463788565233    0.888337000000
 H    3.112791708442   -3.463788565233   -0.888337000000
 C    3.604225708442   -1.527001565233    0.000000000000
 O    2.437029708442   -1.020778565233    0.000000000000
 O    4.728296708442   -0.931583565233    0.000000000000
CS   -1.599662116676    0.729969591706    0.000000000000
