8

 C    3.709524552163   -3.110640309035    0.000000000000
 H    4.745024552163   -3.486728309035    0.000000000000
 H    3.176324552163   -3.491343309035    0.888337000000
 H    3.176324552163   -3.491343309035   -0.888337000000
 C    3.667758552163   -1.554556309035    0.000000000000
 O    2.500562552163   -1.048333309035    0.000000000000
 O    4.791829552163   -0.959138309035    0.000000000000
CS   -1.627872268980    0.742204578743    0.000000000000
