8

 C    3.836590239606   -3.165749796640    0.000000000000
 H    4.872090239606   -3.541837796640    0.000000000000
 H    3.303390239606   -3.546452796640    0.888337000000
 H    3.303390239606   -3.546452796640   -0.888337000000
 C    3.794824239606   -1.609665796640    0.000000000000
 O    2.627628239606   -1.103442796640    0.000000000000
 O    4.918895239606   -1.014247796640    0.000000000000
CS   -1.684292573588    0.766674552818    0.000000000000
