8

 C    4.027188770770   -3.248414028047    0.000000000000
 H    5.062688770770   -3.624502028047    0.000000000000
 H    3.493988770770   -3.629117028047    0.888337000000
 H    3.493988770770   -3.629117028047   -0.888337000000
 C    3.985422770770   -1.692330028047    0.000000000000
 O    2.818226770770   -1.186107028047    0.000000000000
 O    5.109493770770   -1.096912028047    0.000000000000
CS   -1.768923030500    0.803379513929    0.000000000000
