8

 C    4.916648582870   -3.634180441281    0.000000000000
 H    5.952148582870   -4.010268441281    0.000000000000
 H    4.383448582870   -4.014883441281    0.888337000000
 H    4.383448582870   -4.014883441281   -0.888337000000
 C    4.874882582870   -2.078096441281    0.000000000000
 O    3.707686582870   -1.571873441281    0.000000000000
 O    5.998953582870   -1.482678441281    0.000000000000
CS   -2.163865162756    0.974669332449    0.000000000000
