8

 C    5.297845645198   -3.799508904095    0.000000000000
 H    6.333345645198   -4.175596904095    0.000000000000
 H    4.764645645198   -4.180211904095    0.888337000000
 H    4.764645645198   -4.180211904095   -0.888337000000
 C    5.256079645198   -2.243424904095    0.000000000000
 O    4.088883645198   -1.737201904095    0.000000000000
 O    6.380150645198   -1.648006904095    0.000000000000
CS   -2.333126076580    1.048079254672    0.000000000000
