8

 C    5.361378488920   -3.827063647897    0.000000000000
 H    6.396878488920   -4.203151647897    0.000000000000
 H    4.828178488920   -4.207766647897    0.888337000000
 H    4.828178488920   -4.207766647897   -0.888337000000
 C    5.319612488920   -2.270979647897    0.000000000000
 O    4.152416488920   -1.764756647897    0.000000000000
 O    6.443683488920   -1.675561647897    0.000000000000
CS   -2.361336228884    1.060314241709    0.000000000000
