8

 C    6.060239769855   -4.130165829724    0.000000000000
 H    7.095739769855   -4.506253829724    0.000000000000
 H    5.527039769855   -4.510868829724    0.888337000000
 H    5.527039769855   -4.510868829724   -0.888337000000
 C    6.018473769855   -2.574081829724    0.000000000000
 O    4.851277769855   -2.067858829724    0.000000000000
 O    7.142544769855   -1.978663829724    0.000000000000
CS   -2.671647904228    1.194899099117    0.000000000000
