8

 C    6.377903988462   -4.267939548736    0.000000000000
 H    7.413403988462   -4.644027548736    0.000000000000
 H    5.844703988462   -4.648642548736    0.888337000000
 H    5.844703988462   -4.648642548736   -0.888337000000
 C    6.336137988462   -2.711855548736    0.000000000000
 O    5.168941988462   -2.205632548736    0.000000000000
 O    7.460208988462   -2.116437548736    0.000000000000
CS   -2.812698665748    1.256074034303    0.000000000000
