10

 C    1.061776203537   -1.219083615049    0.000000000000
 C   -0.037522796463   -0.170223615049    0.000000000000
 N   -1.317130796463   -0.674012615049    0.000000000000
 H   -2.091803796463   -0.023428615049    0.000000000000
 H   -1.503801796463   -1.666063615049    0.000000000000
 O    0.184069203537    1.042778384951    0.000000000000
 H    2.032441203537   -0.709938615049    0.000000000000
 H    0.982138203537   -1.860088615049    0.892247000000
 H    0.982138203537   -1.860088615049   -0.892247000000
LI    0.399717193698    2.223242676804    0.000000000000
