10

 C    1.059867402581   -1.229532455160    0.000000000000
 C   -0.039431597419   -0.180672455160    0.000000000000
 N   -1.319039597419   -0.684461455160    0.000000000000
 H   -2.093712597419   -0.033877455160    0.000000000000
 H   -1.505710597419   -1.676512455160    0.000000000000
 O    0.182160402581    1.032329544840    0.000000000000
 H    2.030532402581   -0.720387455160    0.000000000000
 H    0.980229402581   -1.870537455160    0.892247000000
 H    0.980229402581   -1.870537455160   -0.892247000000
LI    0.415779058588    2.311165861014    0.000000000000
