10

 C    1.057958601624   -1.239981295271    0.000000000000
 C   -0.041340398376   -0.191121295271    0.000000000000
 N   -1.320948398376   -0.694910295271    0.000000000000
 H   -2.095621398376   -0.044326295271    0.000000000000
 H   -1.507619398376   -1.686961295271    0.000000000000
 O    0.180251601624    1.021880704729    0.000000000000
 H    2.028623601624   -0.730836295271    0.000000000000
 H    0.978320601624   -1.880986295271    0.892247000000
 H    0.978320601624   -1.880986295271   -0.892247000000
LI    0.431840923478    2.399089045224    0.000000000000
