10

 C    1.054140999711   -1.260878975494    0.000000000000
 C   -0.045158000289   -0.212018975494    0.000000000000
 N   -1.324766000289   -0.715807975494    0.000000000000
 H   -2.099439000289   -0.065223975494    0.000000000000
 H   -1.511437000289   -1.707858975494    0.000000000000
 O    0.176433999711    1.000983024506    0.000000000000
 H    2.024805999711   -0.751733975494    0.000000000000
 H    0.974502999711   -1.901883975494    0.892247000000
 H    0.974502999711   -1.901883975494   -0.892247000000
LI    0.463964653258    2.574935413643    0.000000000000
