10

 C    1.052232198755   -1.271327815605    0.000000000000
 C   -0.047066801245   -0.222467815605    0.000000000000
 N   -1.326674801245   -0.726256815605    0.000000000000
 H   -2.101347801245   -0.075672815605    0.000000000000
 H   -1.513345801245   -1.718307815605    0.000000000000
 O    0.174525198755    0.990534184395    0.000000000000
 H    2.022897198755   -0.762182815605    0.000000000000
 H    0.972594198755   -1.912332815605    0.892247000000
 H    0.972594198755   -1.912332815605   -0.892247000000
LI    0.480026518148    2.662858597853    0.000000000000
