10

 C    1.040779393015   -1.334020856273    0.000000000000
 C   -0.058519606985   -0.285160856273    0.000000000000
 N   -1.338127606985   -0.788949856273    0.000000000000
 H   -2.112800606985   -0.138365856273    0.000000000000
 H   -1.524798606985   -1.781000856273    0.000000000000
 O    0.163072393015    0.927841143727    0.000000000000
 H    2.011444393015   -0.824875856273    0.000000000000
 H    0.961141393015   -1.975025856273    0.892247000000
 H    0.961141393015   -1.975025856273   -0.892247000000
LI    0.576397707489    3.190397703112    0.000000000000
