10

 C    1.038870592058   -1.344469696384    0.000000000000
 C   -0.060428407942   -0.295609696384    0.000000000000
 N   -1.340036407942   -0.799398696384    0.000000000000
 H   -2.114709407942   -0.148814696384    0.000000000000
 H   -1.526707407942   -1.791449696384    0.000000000000
 O    0.161163592058    0.917392303616    0.000000000000
 H    2.009535592058   -0.835324696384    0.000000000000
 H    0.959232592058   -1.985474696384    0.892247000000
 H    0.959232592058   -1.985474696384   -0.892247000000
LI    0.592459572379    3.278320887322    0.000000000000
