10

 C    1.031235388232   -1.386265056829    0.000000000000
 C   -0.068063611768   -0.337405056829    0.000000000000
 N   -1.347671611768   -0.841194056829    0.000000000000
 H   -2.122344611768   -0.190610056829    0.000000000000
 H   -1.534342611768   -1.833245056829    0.000000000000
 O    0.153528388232    0.875596943171    0.000000000000
 H    2.001900388232   -0.877120056829    0.000000000000
 H    0.951597388232   -2.027270056829    0.892247000000
 H    0.951597388232   -2.027270056829   -0.892247000000
LI    0.656707031939    3.630013624161    0.000000000000
