10

 C    1.027417786319   -1.407162737052    0.000000000000
 C   -0.071881213681   -0.358302737052    0.000000000000
 N   -1.351489213681   -0.862091737052    0.000000000000
 H   -2.126162213681   -0.211507737052    0.000000000000
 H   -1.538160213681   -1.854142737052    0.000000000000
 O    0.149710786319    0.854699262948    0.000000000000
 H    1.998082786319   -0.898017737052    0.000000000000
 H    0.947779786319   -2.048167737052    0.892247000000
 H    0.947779786319   -2.048167737052   -0.892247000000
LI    0.688830761719    3.805859992581    0.000000000000
