10

 C    1.019782582493   -1.448958097497    0.000000000000
 C   -0.079516417507   -0.400098097497    0.000000000000
 N   -1.359124417507   -0.903887097497    0.000000000000
 H   -2.133797417507   -0.253303097497    0.000000000000
 H   -1.545795417507   -1.895938097497    0.000000000000
 O    0.142075582493    0.812903902503    0.000000000000
 H    1.990447582493   -0.939813097497    0.000000000000
 H    0.940144582493   -2.089963097497    0.892247000000
 H    0.940144582493   -2.089963097497   -0.892247000000
LI    0.753078221280    4.157552729420    0.000000000000
