10

 C    1.017873781536   -1.459406937608    0.000000000000
 C   -0.081425218464   -0.410546937608    0.000000000000
 N   -1.361033218464   -0.914335937608    0.000000000000
 H   -2.135706218464   -0.263751937608    0.000000000000
 H   -1.547704218464   -1.906386937608    0.000000000000
 O    0.140166781536    0.802455062392    0.000000000000
 H    1.988538781536   -0.950261937608    0.000000000000
 H    0.938235781536   -2.100411937608    0.892247000000
 H    0.938235781536   -2.100411937608   -0.892247000000
LI    0.769140086170    4.245475913630    0.000000000000
