10

 C    1.004512174840   -1.532548818387    0.000000000000
 C   -0.094786825160   -0.483688818387    0.000000000000
 N   -1.374394825160   -0.987477818387    0.000000000000
 H   -2.149067825160   -0.336893818387    0.000000000000
 H   -1.561065825160   -1.979528818387    0.000000000000
 O    0.126805174840    0.729313181613    0.000000000000
 H    1.975177174840   -1.023403818387    0.000000000000
 H    0.924874174840   -2.173553818387    0.892247000000
 H    0.924874174840   -2.173553818387   -0.892247000000
LI    0.881573140401    4.860938203098    0.000000000000
