10

 C    0.998785771970   -1.563895338721    0.000000000000
 C   -0.100513228030   -0.515035338721    0.000000000000
 N   -1.380121228030   -1.018824338721    0.000000000000
 H   -2.154794228030   -0.368240338721    0.000000000000
 H   -1.566792228030   -2.010875338721    0.000000000000
 O    0.121078771970    0.697966661279    0.000000000000
 H    1.969450771970   -1.054750338721    0.000000000000
 H    0.919147771970   -2.204900338721    0.892247000000
 H    0.919147771970   -2.204900338721   -0.892247000000
LI    0.929758735071    5.124707755727    0.000000000000
