10

 C    0.991150568144   -1.605690699166    0.000000000000
 C   -0.108148431856   -0.556830699166    0.000000000000
 N   -1.387756431856   -1.060619699166    0.000000000000
 H   -2.162429431856   -0.410035699166    0.000000000000
 H   -1.574427431856   -2.052670699166    0.000000000000
 O    0.113443568144    0.656171300834    0.000000000000
 H    1.961815568144   -1.096545699166    0.000000000000
 H    0.911512568144   -2.246695699166    0.892247000000
 H    0.911512568144   -2.246695699166   -0.892247000000
LI    0.994006194631    5.476400492567    0.000000000000
