10

 C    0.989241767187   -1.616139539278    0.000000000000
 C   -0.110057232813   -0.567279539278    0.000000000000
 N   -1.389665232813   -1.071068539278    0.000000000000
 H   -2.164338232813   -0.420484539278    0.000000000000
 H   -1.576336232813   -2.063119539278    0.000000000000
 O    0.111534767187    0.645722460722    0.000000000000
 H    1.959906767187   -1.106994539278    0.000000000000
 H    0.909603767187   -2.257144539278    0.892247000000
 H    0.909603767187   -2.257144539278   -0.892247000000
LI    1.010068059521    5.564323676776    0.000000000000
