10

 C    0.985424165274   -1.637037219500    0.000000000000
 C   -0.113874834726   -0.588177219500    0.000000000000
 N   -1.393482834726   -1.091966219500    0.000000000000
 H   -2.168155834726   -0.441382219500    0.000000000000
 H   -1.580153834726   -2.084017219500    0.000000000000
 O    0.107717165274    0.624824780500    0.000000000000
 H    1.956089165274   -1.127892219500    0.000000000000
 H    0.905786165274   -2.278042219500    0.892247000000
 H    0.905786165274   -2.278042219500   -0.892247000000
LI    1.042191789302    5.740170045196    0.000000000000
