10

 C    0.983515364317   -1.647486059611    0.000000000000
 C   -0.115783635683   -0.598626059611    0.000000000000
 N   -1.395391635683   -1.102415059611    0.000000000000
 H   -2.170064635683   -0.451831059611    0.000000000000
 H   -1.582062635683   -2.094466059611    0.000000000000
 O    0.105808364317    0.614375940389    0.000000000000
 H    1.954180364317   -1.138341059611    0.000000000000
 H    0.903877364317   -2.288491059611    0.892247000000
 H    0.903877364317   -2.288491059611   -0.892247000000
LI    1.058253654192    5.828093229406    0.000000000000
