10

 C    0.981606563361   -1.657934899723    0.000000000000
 C   -0.117692436639   -0.609074899723    0.000000000000
 N   -1.397300436639   -1.112863899723    0.000000000000
 H   -2.171973436639   -0.462279899723    0.000000000000
 H   -1.583971436639   -2.104914899723    0.000000000000
 O    0.103899563361    0.603927100277    0.000000000000
 H    1.952271563361   -1.148789899723    0.000000000000
 H    0.901968563361   -2.298939899723    0.892247000000
 H    0.901968563361   -2.298939899723   -0.892247000000
LI    1.074315519082    5.916016413616    0.000000000000
