10

 C    0.972062558578   -1.710179100279    0.000000000000
 C   -0.127236441422   -0.661319100279    0.000000000000
 N   -1.406844441422   -1.165108100279    0.000000000000
 H   -2.181517441422   -0.514524100279    0.000000000000
 H   -1.593515441422   -2.157159100279    0.000000000000
 O    0.094355558578    0.551682899721    0.000000000000
 H    1.942727558578   -1.201034100279    0.000000000000
 H    0.892424558578   -2.351184100279    0.892247000000
 H    0.892424558578   -2.351184100279   -0.892247000000
LI    1.154624843532    6.355632334665    0.000000000000
