10

 C    0.970153757621   -1.720627940390    0.000000000000
 C   -0.129145242379   -0.671767940390    0.000000000000
 N   -1.408753242379   -1.175556940390    0.000000000000
 H   -2.183426242379   -0.524972940390    0.000000000000
 H   -1.595424242379   -2.167607940390    0.000000000000
 O    0.092446757621    0.541234059610    0.000000000000
 H    1.940818757621   -1.211482940390    0.000000000000
 H    0.890515757621   -2.361632940390    0.892247000000
 H    0.890515757621   -2.361632940390   -0.892247000000
LI    1.170686708422    6.443555518874    0.000000000000
