10

 C    0.962518553795   -1.762423300836    0.000000000000
 C   -0.136780446205   -0.713563300836    0.000000000000
 N   -1.416388446205   -1.217352300836    0.000000000000
 H   -2.191061446205   -0.566768300836    0.000000000000
 H   -1.603059446205   -2.209403300836    0.000000000000
 O    0.084811553795    0.499438699164    0.000000000000
 H    1.933183553795   -1.253278300836    0.000000000000
 H    0.882880553795   -2.403428300836    0.892247000000
 H    0.882880553795   -2.403428300836   -0.892247000000
LI    1.234934167983    6.795248255714    0.000000000000
