10

 C    0.958700951882   -1.783320981058    0.000000000000
 C   -0.140598048118   -0.734460981058    0.000000000000
 N   -1.420206048118   -1.238249981058    0.000000000000
 H   -2.194879048118   -0.587665981058    0.000000000000
 H   -1.606877048118   -2.230300981058    0.000000000000
 O    0.080993951882    0.478541018942    0.000000000000
 H    1.929365951882   -1.274175981058    0.000000000000
 H    0.879062951882   -2.424325981058    0.892247000000
 H    0.879062951882   -2.424325981058   -0.892247000000
LI    1.267057897763    6.971094624133    0.000000000000
