10

 C    0.949156947099   -1.835565181614    0.000000000000
 C   -0.150142052901   -0.786705181614    0.000000000000
 N   -1.429750052901   -1.290494181614    0.000000000000
 H   -2.204423052901   -0.639910181614    0.000000000000
 H   -1.616421052901   -2.282545181614    0.000000000000
 O    0.071449947099    0.426296818386    0.000000000000
 H    1.919821947099   -1.326420181614    0.000000000000
 H    0.869518947099   -2.476570181614    0.892247000000
 H    0.869518947099   -2.476570181614   -0.892247000000
LI    1.347367222213    7.410710545182    0.000000000000
