10

 C    0.945339345186   -1.856462861837    0.000000000000
 C   -0.153959654814   -0.807602861837    0.000000000000
 N   -1.433567654814   -1.311391861837    0.000000000000
 H   -2.208240654814   -0.660807861837    0.000000000000
 H   -1.620238654814   -2.303442861837    0.000000000000
 O    0.067632345186    0.405399138163    0.000000000000
 H    1.916004345186   -1.347317861837    0.000000000000
 H    0.865701345186   -2.497467861837    0.892247000000
 H    0.865701345186   -2.497467861837   -0.892247000000
LI    1.379490951994    7.586556913602    0.000000000000
