10

 C    0.935795340403   -1.908707062393    0.000000000000
 C   -0.163503659597   -0.859847062393    0.000000000000
 N   -1.443111659597   -1.363636062393    0.000000000000
 H   -2.217784659597   -0.713052062393    0.000000000000
 H   -1.629782659597   -2.355687062393    0.000000000000
 O    0.058088340403    0.353154937607    0.000000000000
 H    1.906460340403   -1.399562062393    0.000000000000
 H    0.856157340403   -2.549712062393    0.892247000000
 H    0.856157340403   -2.549712062393   -0.892247000000
LI    1.459800276444    8.026172834651    0.000000000000
