10

 C    0.924342534663   -1.971400103061    0.000000000000
 C   -0.174956465337   -0.922540103061    0.000000000000
 N   -1.454564465337   -1.426329103061    0.000000000000
 H   -2.229237465337   -0.775745103061    0.000000000000
 H   -1.641235465337   -2.418380103061    0.000000000000
 O    0.046635534663    0.290461896939    0.000000000000
 H    1.895007534663   -1.462255103061    0.000000000000
 H    0.844704534663   -2.612405103061    0.892247000000
 H    0.844704534663   -2.612405103061   -0.892247000000
LI    1.556171465785    8.553711939909    0.000000000000
