10

 C    0.922433733707   -1.981848943172    0.000000000000
 C   -0.176865266293   -0.932988943172    0.000000000000
 N   -1.456473266293   -1.436777943172    0.000000000000
 H   -2.231146266293   -0.786193943172    0.000000000000
 H   -1.643144266293   -2.428828943172    0.000000000000
 O    0.044726733707    0.280013056828    0.000000000000
 H    1.893098733707   -1.472703943172    0.000000000000
 H    0.842795733707   -2.622853943172    0.892247000000
 H    0.842795733707   -2.622853943172   -0.892247000000
LI    1.572233330675    8.641635124119    0.000000000000
