10

 C    0.918616131794   -2.002746623395    0.000000000000
 C   -0.180682868206   -0.953886623395    0.000000000000
 N   -1.460290868206   -1.457675623395    0.000000000000
 H   -2.234963868206   -0.807091623395    0.000000000000
 H   -1.646961868206   -2.449726623395    0.000000000000
 O    0.040909131794    0.259115376605    0.000000000000
 H    1.889281131794   -1.493601623395    0.000000000000
 H    0.838978131794   -2.643751623395    0.892247000000
 H    0.838978131794   -2.643751623395   -0.892247000000
LI    1.604357060455    8.817481492539    0.000000000000
