10

 C    0.910980927967   -2.044541983840    0.000000000000
 C   -0.188318072033   -0.995681983840    0.000000000000
 N   -1.467926072033   -1.499470983840    0.000000000000
 H   -2.242599072033   -0.848886983840    0.000000000000
 H   -1.654597072033   -2.491521983840    0.000000000000
 O    0.033273927967    0.217320016160    0.000000000000
 H    1.881645927967   -1.535396983840    0.000000000000
 H    0.831342927967   -2.685546983840    0.892247000000
 H    0.831342927967   -2.685546983840   -0.892247000000
LI    1.668604520015    9.169174229378    0.000000000000
