10

 C    0.909072127011   -2.054990823951    0.000000000000
 C   -0.190226872989   -1.006130823951    0.000000000000
 N   -1.469834872989   -1.509919823951    0.000000000000
 H   -2.244507872989   -0.859335823951    0.000000000000
 H   -1.656505872989   -2.501970823951    0.000000000000
 O    0.031365127011    0.206871176049    0.000000000000
 H    1.879737127011   -1.545845823951    0.000000000000
 H    0.829434127011   -2.695995823951    0.892247000000
 H    0.829434127011   -2.695995823951   -0.892247000000
LI    1.684666384905    9.257097413588    0.000000000000
