10

 C    0.907163326054   -2.065439664063    0.000000000000
 C   -0.192135673946   -1.016579664063    0.000000000000
 N   -1.471743673946   -1.520368664063    0.000000000000
 H   -2.246416673946   -0.869784664063    0.000000000000
 H   -1.658414673946   -2.512419664063    0.000000000000
 O    0.029456326054    0.196422335937    0.000000000000
 H    1.877828326054   -1.556294664063    0.000000000000
 H    0.827525326054   -2.706444664063    0.892247000000
 H    0.827525326054   -2.706444664063   -0.892247000000
LI    1.700728249795    9.345020597798    0.000000000000
