10

 C    0.903345724141   -2.086337344285    0.000000000000
 C   -0.195953275859   -1.037477344285    0.000000000000
 N   -1.475561275859   -1.541266344285    0.000000000000
 H   -2.250234275859   -0.890682344285    0.000000000000
 H   -1.662232275859   -2.533317344285    0.000000000000
 O    0.025638724141    0.175524655715    0.000000000000
 H    1.874010724141   -1.577192344285    0.000000000000
 H    0.823707724141   -2.727342344285    0.892247000000
 H    0.823707724141   -2.727342344285   -0.892247000000
LI    1.732851979576    9.520866966217    0.000000000000
