10

 C    0.901436923184   -2.096786184397    0.000000000000
 C   -0.197862076816   -1.047926184397    0.000000000000
 N   -1.477470076816   -1.551715184397    0.000000000000
 H   -2.252143076816   -0.901131184397    0.000000000000
 H   -1.664141076816   -2.543766184397    0.000000000000
 O    0.023729923184    0.165075815603    0.000000000000
 H    1.872101923184   -1.587641184397    0.000000000000
 H    0.821798923184   -2.737791184397    0.892247000000
 H    0.821798923184   -2.737791184397   -0.892247000000
LI    1.748913844466    9.608790150427    0.000000000000
