10

 C    0.897619321271   -2.117683864619    0.000000000000
 C   -0.201679678729   -1.068823864619    0.000000000000
 N   -1.481287678729   -1.572612864619    0.000000000000
 H   -2.255960678729   -0.922028864619    0.000000000000
 H   -1.667958678729   -2.564663864619    0.000000000000
 O    0.019912321271    0.144178135381    0.000000000000
 H    1.868284321271   -1.608538864619    0.000000000000
 H    0.817981321271   -2.758688864619    0.892247000000
 H    0.817981321271   -2.758688864619   -0.892247000000
LI    1.781037574246    9.784636518847    0.000000000000
