16

 N   -0.828108308154    1.332651276572    0.035544663831
 C    0.542507104255    1.532125954413    0.031913029455
 H    0.864291400593    2.575870885289    0.053331845148
 C   -1.427823577583    0.079536117019    0.011014673175
 O   -2.645597609115   -0.087406589048    0.012010753949
 N   -0.502517561972   -0.957241492823   -0.016641863814
 H   -0.897091269835   -1.895755802672   -0.037150737212
 C    0.903212816423   -0.871202780505   -0.025089914605
 O    1.591533488851   -1.894820002307   -0.053197853158
 C    1.432981997488    0.497186088229    0.003516454529
 C    2.925271891094    0.681044413691   -0.001314355297
 H    3.186819520174    1.749472290559    0.021339812850
 H    3.365416204684    0.222724194269   -0.900422606743
 H    3.376277097803    0.182557928385    0.870622481616
 H   -1.470414531483    2.116904314746    0.055440082121
LI   -3.636331071604   -0.223224664435    0.012821126422
