16

 N   -0.817660321940    1.334083574392    0.035536117879
 C    0.552955090469    1.533558252233    0.031904483503
 H    0.874739386807    2.577303183109    0.053323299196
 C   -1.417375591369    0.080968414839    0.011006127223
 O   -2.635149622901   -0.085974291228    0.012002207997
 N   -0.492069575758   -0.955809195003   -0.016650409766
 H   -0.886643283621   -1.894323504852   -0.037159283164
 C    0.913660802637   -0.869770482685   -0.025098460557
 O    1.601981475065   -1.893387704487   -0.053206399110
 C    1.443429983702    0.498618386049    0.003507908577
 C    2.935719877308    0.682476711511   -0.001322901249
 H    3.197267506388    1.750904588379    0.021331266898
 H    3.375864190898    0.224156492089   -0.900431152695
 H    3.386725084017    0.183990226205    0.870613935664
 H   -1.459966545269    2.118336612566    0.055431536169
LI   -3.824029777887   -0.248955981692    0.012974654965
