16

 N   -0.812436328833    1.334799723303    0.035531844903
 C    0.558179083576    1.534274401144    0.031900210527
 H    0.879963379914    2.578019332020    0.053319026220
 C   -1.412151598262    0.081684563750    0.011001854247
 O   -2.629925629794   -0.085258142317    0.011997935021
 N   -0.486845582651   -0.955093046092   -0.016654682742
 H   -0.881419290514   -1.893607355941   -0.037163556140
 C    0.918884795744   -0.869054333774   -0.025102733533
 O    1.607205468172   -1.892671555576   -0.053210672086
 C    1.448653976809    0.499334534960    0.003503635601
 C    2.940943870415    0.683192860422   -0.001327174225
 H    3.202491499495    1.751620737290    0.021326993922
 H    3.381088184005    0.224872641000   -0.900435425671
 H    3.391949077124    0.184706375116    0.870609662688
 H   -1.454742552162    2.119052761477    0.055427263193
LI   -3.917879131029   -0.261821640320    0.013051419236
