16

 N   -0.807212335725    1.335515872213    0.035527571927
 C    0.563403076684    1.534990550054    0.031895937551
 H    0.885187373022    2.578735480930    0.053314753244
 C   -1.406927605154    0.082400712660    0.010997581271
 O   -2.624701636686   -0.084541993407    0.011993662045
 N   -0.481621589543   -0.954376897182   -0.016658955718
 H   -0.876195297406   -1.892891207031   -0.037167829116
 C    0.924108788852   -0.868338184864   -0.025107006509
 O    1.612429461280   -1.891955406666   -0.053214945062
 C    1.453877969917    0.500050683870    0.003499362625
 C    2.946167863523    0.683909009332   -0.001331447201
 H    3.207715492603    1.752336886200    0.021322720946
 H    3.386312177113    0.225588789910   -0.900439698647
 H    3.397173070232    0.185422524026    0.870605389712
 H   -1.449518559054    2.119768910387    0.055422990217
LI   -4.011728484170   -0.274687298949    0.013128183508
