16

 N   -0.786316363297    1.338380467855    0.035510480023
 C    0.584299049112    1.537855145696    0.031878845647
 H    0.906083345450    2.581600076572    0.053297661340
 C   -1.386031632726    0.085265308302    0.010980489367
 O   -2.603805664258   -0.081677397765    0.011976570141
 N   -0.460725617115   -0.951512301540   -0.016676047622
 H   -0.855299324978   -1.890026611389   -0.037184921020
 C    0.945004761280   -0.865473589222   -0.025124098413
 O    1.633325433708   -1.889090811024   -0.053232036966
 C    1.474773942345    0.502915279512    0.003482270721
 C    2.967063835951    0.686773604974   -0.001348539105
 H    3.228611465031    1.755201481842    0.021305629042
 H    3.407208149541    0.228453385552   -0.900456790551
 H    3.418069042660    0.188287119668    0.870588297808
 H   -1.428622586626    2.122633506029    0.055405898313
LI   -4.387125896737   -0.326149933462    0.013435240594
