16

 N   -0.357948928506    1.397104678507    0.035160095999
 C    1.012666483903    1.596579356348    0.031528461623
 H    1.334450780241    2.640324287224    0.052947277316
 C   -0.957664197935    0.143989518954    0.010630105343
 O   -2.175438229467   -0.022953187113    0.011626186117
 N   -0.032358182324   -0.892788090888   -0.017026431646
 H   -0.426931890187   -1.831302400737   -0.037535305044
 C    1.373372196071   -0.806749378570   -0.025474482437
 O    2.061692868499   -1.830366600372   -0.053582420990
 C    1.903141377136    0.561639490164    0.003131886697
 C    3.395431270742    0.745497815626   -0.001698923129
 H    3.656978899822    1.813925692494    0.020955245018
 H    3.835575584332    0.287177596204   -0.900807174575
 H    3.846436477451    0.247011330320    0.870237913784
 H   -1.000255151835    2.181357716681    0.055055514289
LI  -12.082772854353   -1.381133940983    0.019729910852
