16

 N   -0.775868377082    1.339812765676    0.035501934071
 C    0.594747035327    1.539287443517    0.031870299695
 H    0.916531331665    2.583032374393    0.053289115388
 C   -1.375583646511    0.086697606123    0.010971943415
 O   -2.593357678043   -0.080245099944    0.011968024189
 N   -0.450277630900   -0.950080003719   -0.016684593574
 H   -0.844851338763   -1.888594313568   -0.037193466972
 C    0.955452747495   -0.864041291401   -0.025132644365
 O    1.643773419923   -1.887658513203   -0.053240582918
 C    1.485221928560    0.504347577333    0.003473724769
 C    2.977511822166    0.688205902795   -0.001357085057
 H    3.239059451246    1.756633779663    0.021297083090
 H    3.417656135756    0.229885683373   -0.900465336503
 H    3.428517028875    0.189719417489    0.870579751856
 H   -1.418174600411    2.124065803850    0.055397352361
LI   -4.574824603020   -0.351881250718    0.013588769137
