16

 N   -0.770644383975    1.340528914586    0.035497661096
 C    0.599971028434    1.540003592427    0.031866026720
 H    0.921755324772    2.583748523303    0.053284842413
 C   -1.370359653404    0.087413755033    0.010967670440
 O   -2.588133684936   -0.079528951034    0.011963751214
 N   -0.445053637793   -0.949363854809   -0.016688866549
 H   -0.839627345656   -1.887878164658   -0.037197739947
 C    0.960676740602   -0.863325142491   -0.025136917340
 O    1.648997413030   -1.886942364293   -0.053244855893
 C    1.490445921667    0.505063726243    0.003469451794
 C    2.982735815273    0.688922051705   -0.001361358032
 H    3.244283444353    1.757349928573    0.021292810115
 H    3.422880128863    0.230601832283   -0.900469609478
 H    3.433741021982    0.190435566399    0.870575478881
 H   -1.412950607304    2.124781952760    0.055393079386
LI   -4.668673956162   -0.364746909347    0.013665533408
