16

 N   -0.760196397761    1.341961212407    0.035489115144
 C    0.610419014648    1.541435890248    0.031857480768
 H    0.932203310986    2.585180821124    0.053276296461
 C   -1.359911667190    0.088846052854    0.010959124488
 O   -2.577685698722   -0.078096653213    0.011955205262
 N   -0.434605651579   -0.947931556988   -0.016697412501
 H   -0.829179359442   -1.886445866837   -0.037206285899
 C    0.971124726816   -0.861892844670   -0.025145463292
 O    1.659445399244   -1.885510066472   -0.053253401845
 C    1.500893907881    0.506496024064    0.003460905842
 C    2.993183801487    0.690354349526   -0.001369903984
 H    3.254731430567    1.758782226394    0.021284264163
 H    3.433328115077    0.232034130104   -0.900478155430
 H    3.444189008196    0.191867864220    0.870566932929
 H   -1.402502621090    2.126214250581    0.055384533434
LI   -4.856372662445   -0.390478226603    0.013819061951
