16

 N   -0.739300425332    1.344825808048    0.035472023240
 C    0.631314987077    1.544300485889    0.031840388864
 H    0.953099283415    2.588045416765    0.053259204557
 C   -1.339015694761    0.091710648495    0.010942032584
 O   -2.556789726293   -0.075232057572    0.011938113358
 N   -0.413709679150   -0.945066961347   -0.016714504405
 H   -0.808283387013   -1.883581271196   -0.037223377803
 C    0.992020699245   -0.859028249029   -0.025162555196
 O    1.680341371673   -1.882645470831   -0.053270493749
 C    1.521789880310    0.509360619705    0.003443813938
 C    3.014079773916    0.693218945167   -0.001386995888
 H    3.275627402996    1.761646822035    0.021267172259
 H    3.454224087506    0.234898725745   -0.900495247334
 H    3.465084980625    0.194732459861    0.870549841025
 H   -1.381606648661    2.129078846222    0.055367441530
LI   -5.231770075012   -0.441940861117    0.014126119037
