16

 N   -0.713180459796    1.348406552600    0.035450658361
 C    0.657434952613    1.547881230441    0.031819023985
 H    0.979219248951    2.591626161317    0.053237839678
 C   -1.312895729225    0.095291393047    0.010920667705
 O   -2.530669760757   -0.071651313020    0.011916748479
 N   -0.387589713614   -0.941486216795   -0.016735869284
 H   -0.782163421477   -1.880000526644   -0.037244742682
 C    1.018140664781   -0.855447504477   -0.025183920075
 O    1.706461337209   -1.879064726279   -0.053291858628
 C    1.547909845846    0.512941364257    0.003422449059
 C    3.040199739452    0.696799689719   -0.001408360767
 H    3.301747368532    1.765227566587    0.021245807380
 H    3.480344053042    0.238479470297   -0.900516612213
 H    3.491204946161    0.198313204413    0.870528476146
 H   -1.355486683125    2.132659590774    0.055346076651
LI   -5.701016840720   -0.506269154258    0.014509940394
