16

 N   -0.697508480474    1.350554999332    0.035437839433
 C    0.673106931935    1.550029677173    0.031806205057
 H    0.994891228273    2.593774608049    0.053225020750
 C   -1.297223749903    0.097439839779    0.010907848777
 O   -2.514997781435   -0.069502866288    0.011903929551
 N   -0.371917734292   -0.939337770063   -0.016748688212
 H   -0.766491442155   -1.877852079912   -0.037257561610
 C    1.033812644103   -0.853299057745   -0.025196739003
 O    1.722133316531   -1.876916279547   -0.053304677556
 C    1.563581825168    0.515089810989    0.003409630131
 C    3.055871718774    0.698948136451   -0.001421179695
 H    3.317419347854    1.767376013319    0.021232988452
 H    3.496016032364    0.240627917029   -0.900529431141
 H    3.506876925483    0.200461651145    0.870515657218
 H   -1.339814703803    2.134808037506    0.055333257723
LI   -5.982564900145   -0.544866130143    0.014740233208
