16

 N   -0.687060494260    1.351987297152    0.035429293481
 C    0.683554918149    1.551461974993    0.031797659105
 H    1.005339214487    2.595206905869    0.053216474798
 C   -1.286775763689    0.098872137599    0.010899302825
 O   -2.504549795221   -0.068070568468    0.011895383599
 N   -0.361469748078   -0.937905472243   -0.016757234164
 H   -0.756043455941   -1.876419782092   -0.037266107562
 C    1.044260630317   -0.851866759925   -0.025205284955
 O    1.732581302745   -1.875483981727   -0.053313223508
 C    1.574029811382    0.516522108809    0.003401084179
 C    3.066319704988    0.700380434271   -0.001429725647
 H    3.327867334068    1.768808311139    0.021224442500
 H    3.506464018578    0.242060214849   -0.900537977093
 H    3.517324911697    0.201893948965    0.870507111266
 H   -1.329366717589    2.136240335326    0.055324711771
LI   -6.170263606429   -0.570597447400    0.014893761751
