16

 N   -0.660940528724    1.355568041704    0.035407928601
 C    0.709674883685    1.555042719545    0.031776294225
 H    1.031459180023    2.598787650421    0.053195109918
 C   -1.260655798153    0.102452882151    0.010877937945
 O   -2.478429829685   -0.064489823916    0.011874018719
 N   -0.335349782542   -0.934324727691   -0.016778599044
 H   -0.729923490405   -1.872839037540   -0.037287472442
 C    1.070380595853   -0.848286015373   -0.025226649835
 O    1.758701268281   -1.871903237175   -0.053334588388
 C    1.600149776918    0.520102853361    0.003379719299
 C    3.092439670524    0.703961178823   -0.001451090527
 H    3.353987299604    1.772389055691    0.021203077620
 H    3.532583984114    0.245640959401   -0.900559341973
 H    3.543444877233    0.205474693517    0.870485746386
 H   -1.303246752053    2.139821079878    0.055303346891
LI   -6.639510372137   -0.634925740541    0.015277583108
