16

 N   -0.655716535617    1.356284190615    0.035403655626
 C    0.714898876792    1.555758868456    0.031772021250
 H    1.036683173130    2.599503799332    0.053190836943
 C   -1.255431805046    0.103169031062    0.010873664970
 O   -2.473205836578   -0.063773675005    0.011869745744
 N   -0.330125789435   -0.933608578780   -0.016782872019
 H   -0.724699497298   -1.872122888629   -0.037291745417
 C    1.075604588960   -0.847569866462   -0.025230922810
 O    1.763925261388   -1.871187088264   -0.053338861363
 C    1.605373770025    0.520819002272    0.003375446324
 C    3.097663663631    0.704677327734   -0.001455363502
 H    3.359211292711    1.773105204602    0.021198804645
 H    3.537807977221    0.246357108312   -0.900563614948
 H    3.548668870340    0.206190842428    0.870481473411
 H   -1.298022758946    2.140537228789    0.055299073916
LI   -6.733359725279   -0.647791399170    0.015354347380
