16

 N   -0.624372576973    1.360581084077    0.035378017770
 C    0.746242835436    1.560055761918    0.031746383394
 H    1.068027131774    2.603800692794    0.053165199087
 C   -1.224087846402    0.107465924524    0.010848027114
 O   -2.441861877934   -0.059476781543    0.011844107888
 N   -0.298781830791   -0.929311685318   -0.016808509875
 H   -0.693355538654   -1.867825995167   -0.037317383273
 C    1.106948547604   -0.843272973000   -0.025256560666
 O    1.795269220032   -1.866890194802   -0.053364499219
 C    1.636717728669    0.525115895734    0.003349808468
 C    3.129007622275    0.708974221196   -0.001481001358
 H    3.390555251355    1.777402098064    0.021173166789
 H    3.569151935865    0.250654001774   -0.900589252804
 H    3.580012828984    0.210487735890    0.870455835555
 H   -1.266678800302    2.144834122251    0.055273436060
LI   -7.296455844129   -0.724985350939    0.015814933008
