16

 N   -0.598252611437    1.364161828629    0.035356652891
 C    0.772362800972    1.563636506470    0.031725018515
 H    1.094147097310    2.607381437346    0.053143834208
 C   -1.197967880866    0.111046669076    0.010826662235
 O   -2.415741912398   -0.055896036991    0.011822743009
 N   -0.272661865255   -0.925730940766   -0.016829874754
 H   -0.667235573118   -1.864245250615   -0.037338748152
 C    1.133068513140   -0.839692228448   -0.025277925545
 O    1.821389185568   -1.863309450250   -0.053385864098
 C    1.662837694205    0.528696640286    0.003328443589
 C    3.155127587811    0.712554965748   -0.001502366237
 H    3.416675216891    1.780982842616    0.021151801910
 H    3.595271901401    0.254234746326   -0.900610617683
 H    3.606132794520    0.214068480442    0.870434470676
 H   -1.240558834766    2.148414866803    0.055252071181
LI   -7.765702609837   -0.789313644081    0.016198754366
