16

 N   -0.587804625223    1.365594126450    0.035348106939
 C    0.782810787186    1.565068804291    0.031716472563
 H    1.104595083524    2.608813735167    0.053135288256
 C   -1.187519894652    0.112478966897    0.010818116283
 O   -2.405293926184   -0.054463739170    0.011814197057
 N   -0.262213879041   -0.924298642945   -0.016838420706
 H   -0.656787586904   -1.862812952794   -0.037347294104
 C    1.143516499354   -0.838259930627   -0.025286471497
 O    1.831837171782   -1.861877152429   -0.053394410050
 C    1.673285680419    0.530128938107    0.003319897637
 C    3.165575574025    0.713987263569   -0.001510912189
 H    3.427123203105    1.782415140437    0.021143255958
 H    3.605719887615    0.255667044147   -0.900619163635
 H    3.616580780734    0.215500778263    0.870425924724
 H   -1.230110848552    2.149847164624    0.055243525229
LI   -7.953401316120   -0.815044961337    0.016352282909
