16

 N   -0.577356639009    1.367026424271    0.035339560987
 C    0.793258773400    1.566501102112    0.031707926611
 H    1.115043069738    2.610246032988    0.053126742304
 C   -1.177071908438    0.113911264718    0.010809570331
 O   -2.394845939970   -0.053031441349    0.011805651105
 N   -0.251765892827   -0.922866345124   -0.016846966658
 H   -0.646339600690   -1.861380654973   -0.037355840056
 C    1.153964485568   -0.836827632806   -0.025295017449
 O    1.842285157996   -1.860444854608   -0.053402956002
 C    1.683733666633    0.531561235928    0.003311351685
 C    3.176023560239    0.715419561390   -0.001519458141
 H    3.437571189319    1.783847438258    0.021134710006
 H    3.616167873829    0.257099341968   -0.900627709587
 H    3.627028766948    0.216933076084    0.870417378772
 H   -1.219662862338    2.151279462445    0.055234979277
LI   -8.141100022403   -0.840776278594    0.016505811451
