16

 N   -0.551236673473    1.370607168823    0.035318196107
 C    0.819378738936    1.570081846664    0.031686561731
 H    1.141163035274    2.613826777540    0.053105377424
 C   -1.150951942902    0.117492009270    0.010788205451
 O   -2.368725974434   -0.049450696797    0.011784286225
 N   -0.225645927291   -0.919285600572   -0.016868331538
 H   -0.620219635154   -1.857799910421   -0.037377204936
 C    1.180084451104   -0.833246888254   -0.025316382329
 O    1.868405123532   -1.856864110056   -0.053424320882
 C    1.709853632169    0.535141980480    0.003289986805
 C    3.202143525775    0.719000305942   -0.001540823021
 H    3.463691154855    1.787428182810    0.021113345126
 H    3.642287839365    0.260680086520   -0.900649074467
 H    3.653148732484    0.220513820636    0.870396013892
 H   -1.193542896802    2.154860206997    0.055213614397
LI   -8.610346788112   -0.905104571736    0.016889632809
