16

 N   -0.546012680366    1.371323317733    0.035313923132
 C    0.824602732043    1.570797995574    0.031682288756
 H    1.146387028381    2.614542926450    0.053101104449
 C   -1.145727949795    0.118208158180    0.010783932476
 O   -2.363501981327   -0.048734547887    0.011780013250
 N   -0.220421934184   -0.918569451662   -0.016872604513
 H   -0.614995642047   -1.857083761511   -0.037381477911
 C    1.185308444211   -0.832530739344   -0.025320655304
 O    1.873629116639   -1.856147961146   -0.053428593857
 C    1.715077625276    0.535858129390    0.003285713830
 C    3.207367518882    0.719716454852   -0.001545095996
 H    3.468915147962    1.788144331720    0.021109072151
 H    3.647511832472    0.261396235430   -0.900653347442
 H    3.658372725591    0.221229969546    0.870391740917
 H   -1.188318903695    2.155576355907    0.055209341422
LI   -8.704196141253   -0.917970230364    0.016966397080
