16

 N   -0.540788687258    1.372039466643    0.035309650156
 C    0.829826725151    1.571514144484    0.031678015780
 H    1.151611021489    2.615259075360    0.053096831473
 C   -1.140503956687    0.118924307090    0.010779659500
 O   -2.358277988219   -0.048018398977    0.011775740274
 N   -0.215197941076   -0.917853302752   -0.016876877489
 H   -0.609771648939   -1.856367612601   -0.037385750887
 C    1.190532437319   -0.831814590434   -0.025324928280
 O    1.878853109747   -1.855431812236   -0.053432866833
 C    1.720301618384    0.536574278300    0.003281440854
 C    3.212591511990    0.720432603762   -0.001549368972
 H    3.474139141070    1.788860480630    0.021104799175
 H    3.652735825580    0.262112384340   -0.900657620418
 H    3.663596718699    0.221946118456    0.870387467941
 H   -1.183094910587    2.156292504817    0.055205068446
LI   -8.798045494395   -0.930835888992    0.017043161352
