16

 N   -0.498996742401    1.377768657927    0.035275466348
 C    0.871618670008    1.577243335768    0.031643831972
 H    1.193402966346    2.620988266644    0.053062647665
 C   -1.098712011830    0.124653498374    0.010745475692
 O   -2.316486043362   -0.042289207693    0.011741556466
 N   -0.173405996219   -0.912124111468   -0.016911061297
 H   -0.567979704082   -1.850638421317   -0.037419934695
 C    1.232324382176   -0.826085399150   -0.025359112088
 O    1.920645054604   -1.849702620952   -0.053467050641
 C    1.762093563241    0.542303469584    0.003247257046
 C    3.254383456847    0.726161795046   -0.001583552780
 H    3.515931085927    1.794589671914    0.021070615367
 H    3.694527770437    0.267841575624   -0.900691804226
 H    3.705388663556    0.227675309740    0.870353284133
 H   -1.141302965730    2.162021696101    0.055170884638
LI   -9.548840319528   -1.033761158019    0.017657275523
