16

 N   -0.462428790650    1.382781700299    0.035245555517
 C    0.908186621759    1.582256378140    0.031613921141
 H    1.229970918097    2.626001309016    0.053032736834
 C   -1.062144060079    0.129666540746    0.010715564861
 O   -2.279918091611   -0.037276165321    0.011711645635
 N   -0.136838044468   -0.907111069096   -0.016940972128
 H   -0.531411752331   -1.845625378945   -0.037449845526
 C    1.268892333927   -0.821072356778   -0.025389022919
 O    1.957213006355   -1.844689578580   -0.053496961472
 C    1.798661514992    0.547316511956    0.003217346215
 C    3.290951408598    0.731174837418   -0.001613463611
 H    3.552499037678    1.799602714286    0.021040704536
 H    3.731095722188    0.272854617996   -0.900721715057
 H    3.741956615307    0.232688352112    0.870323373302
 H   -1.104735013979    2.167034738473    0.055140973807
LI  -10.205785791520   -1.123820768417    0.018194625423
