16

 N   -0.457204797543    1.383497849210    0.035241282541
 C    0.913410614866    1.582972527051    0.031609648165
 H    1.235194911204    2.626717457927    0.053028463858
 C   -1.056920066972    0.130382689657    0.010711291885
 O   -2.274694098504   -0.036560016410    0.011707372659
 N   -0.131614051361   -0.906394920185   -0.016945245104
 H   -0.526187759224   -1.844909230034   -0.037454118502
 C    1.274116327034   -0.820356207867   -0.025393295895
 O    1.962436999462   -1.843973429669   -0.053501234448
 C    1.803885508099    0.548032660867    0.003213073239
 C    3.296175401705    0.731890986329   -0.001617736587
 H    3.557723030785    1.800318863197    0.021036431560
 H    3.736319715295    0.273570766907   -0.900725988033
 H    3.747180608414    0.233404501023    0.870319100326
 H   -1.099511020872    2.167750887384    0.055136700831
LI  -10.299635144662   -1.136686427045    0.018271389695
