16

 N   -0.451980804436    1.384213998120    0.035237009565
 C    0.918634607973    1.583688675961    0.031605375189
 H    1.240418904311    2.627433606837    0.053024190882
 C   -1.051696073865    0.131098838567    0.010707018909
 O   -2.269470105397   -0.035843867500    0.011703099683
 N   -0.126390058254   -0.905678771275   -0.016949518080
 H   -0.520963766117   -1.844193081124   -0.037458391478
 C    1.279340320141   -0.819640058957   -0.025397568871
 O    1.967660992569   -1.843257280759   -0.053505507424
 C    1.809109501206    0.548748809777    0.003208800263
 C    3.301399394812    0.732607135239   -0.001622009563
 H    3.562947023892    1.801035012107    0.021032158584
 H    3.741543708402    0.274286915817   -0.900730261009
 H    3.752404601521    0.234120649933    0.870314827350
 H   -1.094287027765    2.168467036294    0.055132427855
LI  -10.393484497803   -1.149552085673    0.018348153966
