16

 N   -0.425860838900    1.387794742672    0.035215644686
 C    0.944754573509    1.587269420513    0.031584010310
 H    1.266538869847    2.631014351389    0.053002826003
 C   -1.025576108329    0.134679583119    0.010685654030
 O   -2.243350139861   -0.032263122948    0.011681734804
 N   -0.100270092718   -0.902098026723   -0.016970882959
 H   -0.494843800581   -1.840612336572   -0.037479756357
 C    1.305460285677   -0.816059314405   -0.025418933750
 O    1.993780958105   -1.839676536207   -0.053526872303
 C    1.835229466742    0.552329554329    0.003187435384
 C    3.327519360348    0.736187879791   -0.001643374442
 H    3.589066989428    1.804615756659    0.021010793705
 H    3.767663673938    0.277867660369   -0.900751625888
 H    3.778524567057    0.237701394485    0.870293462471
 H   -1.068167062229    2.172047780846    0.055111062976
LI  -10.862731263512   -1.213880378815    0.018731975323
