16

 N   -0.373620907828    1.394956231776    0.035172914927
 C    0.996994504581    1.594430909617    0.031541280551
 H    1.318778800919    2.638175840493    0.052960096244
 C   -0.973336177257    0.141841072223    0.010642924271
 O   -2.191110208789   -0.025101633844    0.011639005045
 N   -0.048030161646   -0.894936537619   -0.017013612718
 H   -0.442603869509   -1.833450847468   -0.037522486116
 C    1.357700216749   -0.808897825301   -0.025461663509
 O    2.046020889177   -1.832515047103   -0.053569602062
 C    1.887469397814    0.559491043433    0.003144705625
 C    3.379759291420    0.743349368895   -0.001686104201
 H    3.641306920500    1.811777245763    0.020968063946
 H    3.819903605010    0.285029149473   -0.900794355647
 H    3.830764498129    0.244862883589    0.870250732712
 H   -1.015927131157    2.179209269950    0.055068333217
LI  -11.801224794928   -1.342536965098    0.019499618038
