16

 N   -0.363172921614    1.396388529597    0.035164368975
 C    1.007442490795    1.595863207438    0.031532734599
 H    1.329226787133    2.639608138314    0.052951550292
 C   -0.962888191043    0.143273370044    0.010634378319
 O   -2.180662222575   -0.023669336023    0.011630459093
 N   -0.037582175432   -0.893504239798   -0.017022158670
 H   -0.432155883295   -1.832018549647   -0.037531032068
 C    1.368148202963   -0.807465527480   -0.025470209461
 O    2.056468875391   -1.831082749282   -0.053578148014
 C    1.897917384028    0.560923341254    0.003136159673
 C    3.390207277634    0.744781666716   -0.001694650153
 H    3.651754906714    1.813209543584    0.020959517994
 H    3.830351591224    0.286461447294   -0.900802901599
 H    3.841212484343    0.246295181410    0.870242186760
 H   -1.005479144943    2.180641567771    0.055059787265
LI  -11.988923501212   -1.368268282355    0.019653146581
