9

 C   -1.559451415867   -0.755971357663   -0.310424890266
 H   -2.538378415867   -0.264183357663   -0.310424890266
 H   -1.452305415867   -1.395780357663    0.577847109734
 H   -1.452305415867   -1.395780357663   -1.198696890266
 C   -0.474824415867    0.289612642337   -0.310424890266
 O   -0.635928415867    1.499163642337   -0.310424890266
 O    0.767461584133   -0.287395357663   -0.310424890266
 H    1.401997584133    0.451167642337   -0.310424890266
NA    1.147469572864   -0.485471089601    0.810449738280
