9

 C   -1.603302565377   -0.733114342039   -0.439768594543
 H   -2.582229565377   -0.241326342039   -0.439768594543
 H   -1.496156565377   -1.372923342039    0.448503405457
 H   -1.496156565377   -1.372923342039   -1.328040594543
 C   -0.518675565377    0.312469657961   -0.439768594543
 O   -0.679779565377    1.522020657961   -0.439768594543
 O    0.723610434623   -0.264538342039   -0.439768594543
 H    1.358146434623    0.474024657961   -0.439768594543
NA    1.261955085326   -0.545145628952    1.148137129230
