9

 C   -1.612072795279   -0.728542938915   -0.465637335399
 H   -2.590999795279   -0.236754938915   -0.465637335399
 H   -1.504926795279   -1.368351938915    0.422634664601
 H   -1.504926795279   -1.368351938915   -1.353909335399
 C   -0.527445795279    0.317041061085   -0.465637335399
 O   -0.688549795279    1.526592061085   -0.465637335399
 O    0.714840204721   -0.259966938915   -0.465637335399
 H    1.349376204721    0.478596061085   -0.465637335399
NA    1.284852187818   -0.557080536823    1.215674607420
