9

 C   -1.620843025181   -0.723971535790   -0.491506076254
 H   -2.599770025181   -0.232183535790   -0.491506076254
 H   -1.513697025181   -1.363780535790    0.396765923746
 H   -1.513697025181   -1.363780535790   -1.379778076254
 C   -0.536216025181    0.321612464210   -0.491506076254
 O   -0.697320025181    1.531163464210   -0.491506076254
 O    0.706069974819   -0.255395535790   -0.491506076254
 H    1.340605974819    0.483167464210   -0.491506076254
NA    1.307749290311   -0.569015444693    1.283212085610
