9

 C   -1.655923944788   -0.705685923291   -0.594981039676
 H   -2.634850944788   -0.213897923291   -0.594981039676
 H   -1.548777944788   -1.345494923291    0.293290960324
 H   -1.548777944788   -1.345494923291   -1.483253039676
 C   -0.571296944788    0.339898076709   -0.594981039676
 O   -0.732400944788    1.549449076709   -0.594981039676
 O    0.670989055212   -0.237109923291   -0.594981039676
 H    1.305525055212    0.501453076709   -0.594981039676
NA    1.399337700281   -0.616755076174    1.553361998370
