9

 C   -1.673464404592   -0.696543117042   -0.646718521387
 H   -2.652391404592   -0.204755117042   -0.646718521387
 H   -1.566318404592   -1.336352117042    0.241553478613
 H   -1.566318404592   -1.336352117042   -1.534990521387
 C   -0.588837404592    0.349040882958   -0.646718521387
 O   -0.749941404592    1.558591882958   -0.646718521387
 O    0.653448595408   -0.227967117042   -0.646718521387
 H    1.287984595408    0.510595882958   -0.646718521387
NA    1.445131905265   -0.640624891914    1.688436954750
