9

 C   -1.682234634494   -0.691971713917   -0.672587262243
 H   -2.661161634494   -0.200183713917   -0.672587262243
 H   -1.575088634494   -1.331780713917    0.215684737757
 H   -1.575088634494   -1.331780713917   -1.560859262243
 C   -0.597607634494    0.353612286083   -0.672587262243
 O   -0.758711634494    1.563163286083   -0.672587262243
 O    0.644678365506   -0.223395713917   -0.672587262243
 H    1.279214365506    0.515167286083   -0.672587262243
NA    1.468029007758   -0.652559799784    1.755974432940
