9

 C   -1.752396473708   -0.655400488920   -0.879537189086
 H   -2.731323473708   -0.163612488920   -0.879537189086
 H   -1.645250473708   -1.295209488920    0.008734810914
 H   -1.645250473708   -1.295209488920   -1.767809189086
 C   -0.667769473708    0.390183511080   -0.879537189086
 O   -0.828873473708    1.599734511080   -0.879537189086
 O    0.574516526292   -0.186824488920   -0.879537189086
 H    1.209052526292    0.551738511080   -0.879537189086
NA    1.651205827697   -0.748039062746    2.296274258459
