9

 C   -1.787477393316   -0.637114876421   -0.983012152508
 H   -2.766404393316   -0.145326876421   -0.983012152508
 H   -1.680331393316   -1.276923876421   -0.094740152508
 H   -1.680331393316   -1.276923876421   -1.871284152508
 C   -0.702850393316    0.408469123579   -0.983012152508
 O   -0.863954393316    1.618020123579   -0.983012152508
 O    0.539435606684   -0.168538876421   -0.983012152508
 H    1.173971606684    0.570024123579   -0.983012152508
NA    1.742794237667   -0.795778694227    2.566424171219
