9

 C   -1.813788083021   -0.623400667047   -1.060618375075
 H   -2.792715083021   -0.131612667047   -1.060618375075
 H   -1.706642083021   -1.263209667047   -0.172346375075
 H   -1.706642083021   -1.263209667047   -1.948890375075
 C   -0.729161083021    0.422183332953   -1.060618375075
 O   -0.890265083021    1.631734332953   -1.060618375075
 O    0.513124916979   -0.154824667047   -1.060618375075
 H    1.147660916979    0.583738332953   -1.060618375075
NA    1.811485545144   -0.831583417838    2.769036605789
