9

 C   -1.822558312923   -0.618829263923   -1.086487115930
 H   -2.801485312923   -0.127041263923   -1.086487115930
 H   -1.715412312923   -1.258638263923   -0.198215115930
 H   -1.715412312923   -1.258638263923   -1.974759115930
 C   -0.737931312923    0.426754736077   -1.086487115930
 O   -0.899035312923    1.636305736077   -1.086487115930
 O    0.504354687077   -0.150253263923   -1.086487115930
 H    1.138890687077    0.588309736077   -1.086487115930
NA    1.834382647637   -0.843518325708    2.836574083979
