9

 C   -1.831328542825   -0.614257860798   -1.112355856786
 H   -2.810255542825   -0.122469860798   -1.112355856786
 H   -1.724182542825   -1.254066860798   -0.224083856786
 H   -1.724182542825   -1.254066860798   -2.000627856786
 C   -0.746701542825    0.431326139202   -1.112355856786
 O   -0.907805542825    1.640877139202   -1.112355856786
 O    0.495584457175   -0.145681860798   -1.112355856786
 H    1.130120457175    0.592881139202   -1.112355856786
NA    1.857279750129   -0.855453233578    2.904111562169
