9

 C   -1.848869002629   -0.605115054549   -1.164093338497
 H   -2.827796002629   -0.113327054549   -1.164093338497
 H   -1.741723002629   -1.244924054549   -0.275821338497
 H   -1.741723002629   -1.244924054549   -2.052365338497
 C   -0.764242002629    0.440468945451   -1.164093338497
 O   -0.925346002629    1.650019945451   -1.164093338497
 O    0.478043997371   -0.136539054549   -1.164093338497
 H    1.112579997371    0.602023945451   -1.164093338497
NA    1.903073955114   -0.879323049319    3.039186518549
