9

 C   -1.866409462433   -0.595972248300   -1.215830820208
 H   -2.845336462433   -0.104184248300   -1.215830820208
 H   -1.759263462433   -1.235781248300   -0.327558820208
 H   -1.759263462433   -1.235781248300   -2.104102820208
 C   -0.781782462433    0.449611751700   -1.215830820208
 O   -0.942886462433    1.659162751700   -1.215830820208
 O    0.460503537567   -0.127396248300   -1.215830820208
 H    1.095039537567    0.611166751700   -1.215830820208
NA    1.948868160099   -0.903192865059    3.174261474929
