9

 C   -1.875179692334   -0.591400845175   -1.241699561063
 H   -2.854106692334   -0.099612845175   -1.241699561063
 H   -1.768033692334   -1.231209845175   -0.353427561063
 H   -1.768033692334   -1.231209845175   -2.129971561063
 C   -0.790552692334    0.454183154825   -1.241699561063
 O   -0.951656692334    1.663734154825   -1.241699561063
 O    0.451733307666   -0.122824845175   -1.241699561063
 H    1.086269307666    0.615738154825   -1.241699561063
NA    1.971765262591   -0.915127772930    3.241798953119
