9

 C   -1.892720152138   -0.582258038926   -1.293437042774
 H   -2.871647152138   -0.090470038926   -1.293437042774
 H   -1.785574152138   -1.222067038926   -0.405165042774
 H   -1.785574152138   -1.222067038926   -2.181709042774
 C   -0.808093152138    0.463325961074   -1.293437042774
 O   -0.969197152138    1.672876961074   -1.293437042774
 O    0.434192847862   -0.113682038926   -1.293437042774
 H    1.068728847862    0.624880961074   -1.293437042774
NA    2.017559467576   -0.938997588670    3.376873909499
