9

 C   -1.910260611942   -0.573115232676   -1.345174524485
 H   -2.889187611942   -0.081327232676   -1.345174524485
 H   -1.803114611942   -1.212924232676   -0.456902524485
 H   -1.803114611942   -1.212924232676   -2.233446524485
 C   -0.825633611942    0.472468767324   -1.345174524485
 O   -0.986737611942    1.682019767324   -1.345174524485
 O    0.416652388058   -0.104539232676   -1.345174524485
 H    1.051188388058    0.634023767324   -1.345174524485
NA    2.063353672561   -0.962867404411    3.511948865879
