9

 C   -1.936571301647   -0.559401023302   -1.422780747052
 H   -2.915498301647   -0.067613023302   -1.422780747052
 H   -1.829425301647   -1.199210023302   -0.534508747052
 H   -1.829425301647   -1.199210023302   -2.311052747052
 C   -0.851944301647    0.486182976698   -1.422780747052
 O   -1.013048301647    1.695733976698   -1.422780747052
 O    0.390341698353   -0.090825023302   -1.422780747052
 H    1.024877698353    0.647737976698   -1.422780747052
NA    2.132044980038   -0.998672128021    3.714561300449
