9

 C   -2.006733140862   -0.522829798305   -1.629730673895
 H   -2.985660140862   -0.031041798305   -1.629730673895
 H   -1.899587140862   -1.162638798305   -0.741458673895
 H   -1.899587140862   -1.162638798305   -2.518002673895
 C   -0.922106140862    0.522754201695   -1.629730673895
 O   -1.083210140862    1.732305201695   -1.629730673895
 O    0.320179859138   -0.054253798305   -1.629730673895
 H    0.954715859138    0.684309201695   -1.629730673895
NA    2.315221799978   -1.094151390983    4.254861125969
