9

 C   -2.024273600666   -0.513686992056   -1.681468155606
 H   -3.003200600666   -0.021898992056   -1.681468155606
 H   -1.917127600666   -1.153495992056   -0.793196155606
 H   -1.917127600666   -1.153495992056   -2.569740155606
 C   -0.939646600666    0.531897007944   -1.681468155606
 O   -1.100750600666    1.741448007944   -1.681468155606
 O    0.302639399334   -0.045110992056   -1.681468155606
 H    0.937175399334    0.693452007944   -1.681468155606
NA    2.361016004963   -1.118021206724    4.389936082349
