9

 C   -2.059354520274   -0.495401379557   -1.784943119028
 H   -3.038281520274   -0.003613379557   -1.784943119028
 H   -1.952208520274   -1.135210379557   -0.896671119028
 H   -1.952208520274   -1.135210379557   -2.673215119028
 C   -0.974727520274    0.550182620443   -1.784943119028
 O   -1.135831520274    1.759733620443   -1.784943119028
 O    0.267558479726   -0.026825379557   -1.784943119028
 H    0.902094479726    0.711737620443   -1.784943119028
NA    2.452604414932   -1.165760838205    4.660085995109
