9

 C   -2.068124750175   -0.490829976432   -1.810811859884
 H   -3.047051750175    0.000958023568   -1.810811859884
 H   -1.960978750175   -1.130638976432   -0.922539859884
 H   -1.960978750175   -1.130638976432   -2.699083859884
 C   -0.983497750175    0.554754023568   -1.810811859884
 O   -1.144601750175    1.764305023568   -1.810811859884
 O    0.258788249825   -0.022253976432   -1.810811859884
 H    0.893324249825    0.716309023568   -1.810811859884
NA    2.475501517425   -1.177695746075    4.727623473299
