9

 C   -2.076894980077   -0.486258573308   -1.836680600739
 H   -3.055821980077    0.005529426692   -1.836680600739
 H   -1.969748980077   -1.126067573308   -0.948408600739
 H   -1.969748980077   -1.126067573308   -2.724952600739
 C   -0.992267980077    0.559325426692   -1.836680600739
 O   -1.153371980077    1.768876426692   -1.836680600739
 O    0.250018019923   -0.017682573308   -1.836680600739
 H    0.884554019923    0.720880426692   -1.836680600739
NA    2.498398619917   -1.189630653945    4.795160951489
