9

 C   -2.103205669783   -0.472544363934   -1.914286823306
 H   -3.082132669783    0.019243636066   -1.914286823306
 H   -1.996059669783   -1.112353363934   -1.026014823306
 H   -1.996059669783   -1.112353363934   -2.802558823306
 C   -1.018578669783    0.573039636066   -1.914286823306
 O   -1.179682669783    1.782590636066   -1.914286823306
 O    0.223707330217   -0.003968363934   -1.914286823306
 H    0.858243330217    0.734594636066   -1.914286823306
NA    2.567089927394   -1.225435377556    4.997773386059
