9

 C   -2.138286589390   -0.454258751435   -2.017761786728
 H   -3.117213589390    0.037529248565   -2.017761786728
 H   -2.031140589390   -1.094067751435   -1.129489786728
 H   -2.031140589390   -1.094067751435   -2.906033786728
 C   -1.053659589390    0.591325248565   -2.017761786728
 O   -1.214763589390    1.800876248565   -2.017761786728
 O    0.188626410610    0.014317248565   -2.017761786728
 H    0.823162410610    0.752880248565   -2.017761786728
NA    2.658678337364   -1.273175009037    5.267923298819
