9

 C   -2.147056819292   -0.449687348311   -2.043630527583
 H   -3.125983819292    0.042100651689   -2.043630527583
 H   -2.039910819292   -1.089496348311   -1.155358527583
 H   -2.039910819292   -1.089496348311   -2.931902527583
 C   -1.062429819292    0.595896651689   -2.043630527583
 O   -1.223533819292    1.805447651689   -2.043630527583
 O    0.179856180708    0.018888651689   -2.043630527583
 H    0.814392180708    0.757451651689   -2.043630527583
NA    2.681575439856   -1.285109916907    5.335460777009
