9

 C   -2.182137738900   -0.431401735812   -2.147105491005
 H   -3.161064738900    0.060386264188   -2.147105491005
 H   -2.074991738900   -1.071210735812   -1.258833491005
 H   -2.074991738900   -1.071210735812   -3.035377491005
 C   -1.097510738900    0.614182264188   -2.147105491005
 O   -1.258614738900    1.823733264188   -2.147105491005
 O    0.144775261100    0.037174264188   -2.147105491005
 H    0.779311261100    0.775737264188   -2.147105491005
NA    2.773163849826   -1.332849548388    5.605610689769
