9

 C   -2.199678198703   -0.422258929563   -2.198842972716
 H   -3.178605198703    0.069529070437   -2.198842972716
 H   -2.092532198703   -1.062067929563   -1.310570972716
 H   -2.092532198703   -1.062067929563   -3.087114972716
 C   -1.115051198703    0.623325070437   -2.198842972716
 O   -1.276155198703    1.832876070437   -2.198842972716
 O    0.127234801297    0.046317070437   -2.198842972716
 H    0.761770801297    0.784880070437   -2.198842972716
NA    2.818958054811   -1.356719364128    5.740685646149
