9

 C   -2.208448428605   -0.417687526438   -2.224711713572
 H   -3.187375428605    0.074100473562   -2.224711713572
 H   -2.101302428605   -1.057496526438   -1.336439713572
 H   -2.101302428605   -1.057496526438   -3.112983713572
 C   -1.123821428605    0.627896473562   -2.224711713572
 O   -1.284925428605    1.837447473562   -2.224711713572
 O    0.118464571395    0.050888473562   -2.224711713572
 H    0.753000571395    0.789451473562   -2.224711713572
NA    2.841855157303   -1.368654271998    5.808223124339
