9

 C   -2.225988888409   -0.408544720189   -2.276449195283
 H   -3.204915888409    0.083243279811   -2.276449195283
 H   -2.118842888409   -1.048353720189   -1.388177195283
 H   -2.118842888409   -1.048353720189   -3.164721195283
 C   -1.141361888409    0.637039279811   -2.276449195283
 O   -1.302465888409    1.846590279811   -2.276449195283
 O    0.100924111591    0.060031279811   -2.276449195283
 H    0.735460111591    0.798594279811   -2.276449195283
NA    2.887649362288   -1.392524087739    5.943298080719
