9

 C   -2.261069808016   -0.390259107690   -2.379924158705
 H   -3.239996808016    0.101528892310   -2.379924158705
 H   -2.153923808016   -1.030068107690   -1.491652158705
 H   -2.153923808016   -1.030068107690   -3.268196158705
 C   -1.176442808016    0.655324892310   -2.379924158705
 O   -1.337546808016    1.864875892310   -2.379924158705
 O    0.065843191984    0.078316892310   -2.379924158705
 H    0.700379191984    0.816879892310   -2.379924158705
NA    2.979237772258   -1.440263719220    6.213447993478
