9

 C   -2.278610267820   -0.381116301441   -2.431661640415
 H   -3.257537267820    0.110671698559   -2.431661640415
 H   -2.171464267820   -1.020925301441   -1.543389640415
 H   -2.171464267820   -1.020925301441   -3.319933640415
 C   -1.193983267820    0.664467698559   -2.431661640415
 O   -1.355087267820    1.874018698559   -2.431661640415
 O    0.048302732180    0.087459698559   -2.431661640415
 H    0.682838732180    0.826022698559   -2.431661640415
NA    3.025031977243   -1.464133534960    6.348522949858
