9

 C   -2.296150727624   -0.371973495191   -2.483399122126
 H   -3.275077727624    0.119814504809   -2.483399122126
 H   -2.189004727624   -1.011782495191   -1.595127122126
 H   -2.189004727624   -1.011782495191   -3.371671122126
 C   -1.211523727624    0.673610504809   -2.483399122126
 O   -1.372627727624    1.883161504809   -2.483399122126
 O    0.030762272376    0.096602504809   -2.483399122126
 H    0.665298272376    0.835165504809   -2.483399122126
NA    3.070826182228   -1.488003350701    6.483597906238
