9

 C   -2.304920957526   -0.367402092067   -2.509267862982
 H   -3.283847957526    0.124385907933   -2.509267862982
 H   -2.197774957526   -1.007211092067   -1.620995862982
 H   -2.197774957526   -1.007211092067   -3.397539862982
 C   -1.220293957526    0.678181907933   -2.509267862982
 O   -1.381397957526    1.887732907933   -2.509267862982
 O    0.021992042474    0.101173907933   -2.509267862982
 H    0.656528042474    0.839736907933   -2.509267862982
NA    3.093723284720   -1.499938258571    6.551135384428
