9

 C   -2.322461417329   -0.358259285817   -2.561005344693
 H   -3.301388417329    0.133528714183   -2.561005344693
 H   -2.215315417329   -0.998068285817   -1.672733344693
 H   -2.215315417329   -0.998068285817   -3.449277344693
 C   -1.237834417329    0.687324714183   -2.561005344693
 O   -1.398938417329    1.896875714183   -2.561005344693
 O    0.004451582671    0.110316714183   -2.561005344693
 H    0.638987582671    0.848879714183   -2.561005344693
NA    3.139517489705   -1.523808074312    6.686210340808
