8

 C    0.079272045952   -2.350298647319    0.000000000000
 H    1.114772045952   -2.726386647319    0.000000000000
 H   -0.453927954048   -2.731001647319    0.888337000000
 H   -0.453927954048   -2.731001647319   -0.888337000000
 C    0.037506045952   -0.794214647319    0.000000000000
 O   -1.129689954048   -0.287991647319    0.000000000000
 O    1.161577045952   -0.198796647319    0.000000000000
CS   -0.015950464389    0.404594095351    0.000000000000
