8

 C    0.088526823604   -2.557845086283    0.000000000000
 H    1.124026823604   -2.933933086283    0.000000000000
 H   -0.444673176396   -2.938548086283    0.888337000000
 H   -0.444673176396   -2.938548086283   -0.888337000000
 C    0.046760823604   -1.001761086283    0.000000000000
 O   -1.120435176396   -0.495538086283    0.000000000000
 O    1.170831823604   -0.406343086283    0.000000000000
CS   -0.020059814322    0.496749842054    0.000000000000
