8

 C    0.097781601256   -2.765391525247    0.000000000000
 H    1.133281601256   -3.141479525247    0.000000000000
 H   -0.435418398744   -3.146094525247    0.888337000000
 H   -0.435418398744   -3.146094525247   -0.888337000000
 C    0.056015601256   -1.209307525247    0.000000000000
 O   -1.111180398744   -0.703084525247    0.000000000000
 O    1.180086601256   -0.613889525247    0.000000000000
CS   -0.024169164256    0.588905588758    0.000000000000
