8

 C    0.103951453024   -2.903755817890    0.000000000000
 H    1.139451453024   -3.279843817890    0.000000000000
 H   -0.429248546976   -3.284458817890    0.888337000000
 H   -0.429248546976   -3.284458817890   -0.888337000000
 C    0.062185453024   -1.347671817890    0.000000000000
 O   -1.105010546976   -0.841448817890    0.000000000000
 O    1.186256453024   -0.752253817890    0.000000000000
CS   -0.026908730878    0.650342753227    0.000000000000
