8

 C    0.122461008329   -3.318848695819    0.000000000000
 H    1.157961008329   -3.694936695819    0.000000000000
 H   -0.410738991671   -3.699551695819    0.888337000000
 H   -0.410738991671   -3.699551695819   -0.888337000000
 C    0.080695008329   -1.762764695819    0.000000000000
 O   -1.086500991671   -1.256541695819    0.000000000000
 O    1.204766008329   -1.167346695819    0.000000000000
CS   -0.035127430744    0.834654246633    0.000000000000
