8

 C    0.128630860097   -3.457212988461    0.000000000000
 H    1.164130860097   -3.833300988461    0.000000000000
 H   -0.404569139903   -3.837915988461    0.888337000000
 H   -0.404569139903   -3.837915988461   -0.888337000000
 C    0.086864860097   -1.901128988461    0.000000000000
 O   -1.080331139903   -1.394905988461    0.000000000000
 O    1.210935860097   -1.305710988461    0.000000000000
CS   -0.037866997366    0.896091411102    0.000000000000
