8

 C    0.150225341285   -3.941488012711    0.000000000000
 H    1.185725341285   -4.317576012711    0.000000000000
 H   -0.382974658715   -4.322191012711    0.888337000000
 H   -0.382974658715   -4.322191012711   -0.888337000000
 C    0.108459341285   -2.385404012711    0.000000000000
 O   -1.058736658715   -1.879181012711    0.000000000000
 O    1.232530341285   -1.789986012711    0.000000000000
CS   -0.047455480544    1.111121486743    0.000000000000
