8

 C    0.162565044821   -4.218216597997    0.000000000000
 H    1.198065044821   -4.594304597997    0.000000000000
 H   -0.370634955179   -4.598919597997    0.888337000000
 H   -0.370634955179   -4.598919597997   -0.888337000000
 C    0.120799044821   -2.662132597997    0.000000000000
 O   -1.046396955179   -2.155909597997    0.000000000000
 O    1.244870044821   -2.066714597997    0.000000000000
CS   -0.052934613788    1.233995815681    0.000000000000
