8

 C    0.168734896589   -4.356580890639    0.000000000000
 H    1.204234896589   -4.732668890639    0.000000000000
 H   -0.364465103411   -4.737283890639    0.888337000000
 H   -0.364465103411   -4.737283890639   -0.888337000000
 C    0.126968896589   -2.800496890639    0.000000000000
 O   -1.040227103411   -2.294273890639    0.000000000000
 O    1.251039896589   -2.205078890639    0.000000000000
CS   -0.055674180411    1.295432980150    0.000000000000
