8

 C    0.177989674241   -4.564127329604    0.000000000000
 H    1.213489674241   -4.940215329604    0.000000000000
 H   -0.355210325759   -4.944830329604    0.888337000000
 H   -0.355210325759   -4.944830329604   -0.888337000000
 C    0.136223674241   -3.008043329604    0.000000000000
 O   -1.030972325759   -2.501820329604    0.000000000000
 O    1.260294674241   -2.412625329604    0.000000000000
CS   -0.059783530344    1.387588726853    0.000000000000
