8

 C    0.187244451893   -4.771673768568    0.000000000000
 H    1.222744451893   -5.147761768568    0.000000000000
 H   -0.345955548107   -5.152376768568    0.888337000000
 H   -0.345955548107   -5.152376768568   -0.888337000000
 C    0.145478451893   -3.215589768568    0.000000000000
 O   -1.021717548107   -2.709366768568    0.000000000000
 O    1.269549451893   -2.620171768568    0.000000000000
CS   -0.063892880277    1.479744473557    0.000000000000
