8

 C    0.196499229545   -4.979220207532    0.000000000000
 H    1.231999229545   -5.355308207532    0.000000000000
 H   -0.336700770455   -5.359923207532    0.888337000000
 H   -0.336700770455   -5.359923207532   -0.888337000000
 C    0.154733229545   -3.423136207532    0.000000000000
 O   -1.012462770455   -2.916913207532    0.000000000000
 O    1.278804229545   -2.827718207532    0.000000000000
CS   -0.068002230210    1.571900220260    0.000000000000
