8

 C    0.199584155429   -5.048402353853    0.000000000000
 H    1.235084155429   -5.424490353853    0.000000000000
 H   -0.333615844571   -5.429105353853    0.888337000000
 H   -0.333615844571   -5.429105353853   -0.888337000000
 C    0.157818155429   -3.492318353853    0.000000000000
 O   -1.009377844571   -2.986095353853    0.000000000000
 O    1.281889155429   -2.896900353853    0.000000000000
CS   -0.069372013521    1.602618802494    0.000000000000
