8

 C    0.218093710734   -5.463495231782    0.000000000000
 H    1.253593710734   -5.839583231782    0.000000000000
 H   -0.315106289266   -5.844198231782    0.888337000000
 H   -0.315106289266   -5.844198231782   -0.888337000000
 C    0.176327710734   -3.907411231782    0.000000000000
 O   -0.990868289266   -3.401188231782    0.000000000000
 O    1.300398710734   -3.311993231782    0.000000000000
CS   -0.077590713388    1.786930295901    0.000000000000
