8

 C    0.221178636618   -5.532677378103    0.000000000000
 H    1.256678636618   -5.908765378103    0.000000000000
 H   -0.312021363382   -5.913380378103    0.888337000000
 H   -0.312021363382   -5.913380378103   -0.888337000000
 C    0.179412636618   -3.976593378103    0.000000000000
 O   -0.987783363382   -3.470370378103    0.000000000000
 O    1.303483636618   -3.381175378103    0.000000000000
CS   -0.078960496699    1.817648878135    0.000000000000
