8

 C    0.236603266038   -5.878588109710    0.000000000000
 H    1.272103266038   -6.254676109710    0.000000000000
 H   -0.296596733962   -6.259291109710    0.888337000000
 H   -0.296596733962   -6.259291109710   -0.888337000000
 C    0.194837266038   -4.322504109710    0.000000000000
 O   -0.972358733962   -3.816281109710    0.000000000000
 O    1.318908266038   -3.727086109710    0.000000000000
CS   -0.085809413254    1.971241789308    0.000000000000
