8

 C    0.239688191922   -5.947770256031    0.000000000000
 H    1.275188191922   -6.323858256031    0.000000000000
 H   -0.293511808078   -6.328473256031    0.888337000000
 H   -0.293511808078   -6.328473256031   -0.888337000000
 C    0.197922191922   -4.391686256031    0.000000000000
 O   -0.969273808078   -3.885463256031    0.000000000000
 O    1.321993191922   -3.796268256031    0.000000000000
CS   -0.087179196565    2.001960371542    0.000000000000
