8

 C    0.248942969574   -6.155316694996    0.000000000000
 H    1.284442969574   -6.531404694996    0.000000000000
 H   -0.284257030426   -6.536019694996    0.888337000000
 H   -0.284257030426   -6.536019694996   -0.888337000000
 C    0.207176969574   -4.599232694996    0.000000000000
 O   -0.960019030426   -4.093009694996    0.000000000000
 O    1.331247969574   -4.003814694996    0.000000000000
CS   -0.091288546499    2.094116118245    0.000000000000
