8

 C    0.255112821342   -6.293680987638    0.000000000000
 H    1.290612821342   -6.669768987638    0.000000000000
 H   -0.278087178658   -6.674383987638    0.888337000000
 H   -0.278087178658   -6.674383987638   -0.888337000000
 C    0.213346821342   -4.737596987638    0.000000000000
 O   -0.953849178658   -4.231373987638    0.000000000000
 O    1.337417821342   -4.142178987638    0.000000000000
CS   -0.094028113121    2.155553282714    0.000000000000
