8

 C    0.264367598994   -6.501227426603    0.000000000000
 H    1.299867598994   -6.877315426603    0.000000000000
 H   -0.268832401006   -6.881930426603    0.888337000000
 H   -0.268832401006   -6.881930426603   -0.888337000000
 C    0.222601598994   -4.945143426603    0.000000000000
 O   -0.944594401006   -4.438920426603    0.000000000000
 O    1.346672598994   -4.349725426603    0.000000000000
CS   -0.098137463054    2.247709029418    0.000000000000
