8

 C    0.279792228414   -6.847138158210    0.000000000000
 H    1.315292228414   -7.223226158210    0.000000000000
 H   -0.253407771586   -7.227841158210    0.888337000000
 H   -0.253407771586   -7.227841158210   -0.888337000000
 C    0.238026228414   -5.291054158210    0.000000000000
 O   -0.929169771586   -4.784831158210    0.000000000000
 O    1.362097228414   -4.695636158210    0.000000000000
CS   -0.104986379609    2.401301940590    0.000000000000
