8

 C    0.316811339023   -7.677323914066    0.000000000000
 H    1.352311339023   -8.053411914066    0.000000000000
 H   -0.216388660977   -8.058026914066    0.888337000000
 H   -0.216388660977   -8.058026914066   -0.888337000000
 C    0.275045339023   -6.121239914066    0.000000000000
 O   -0.892150660977   -5.615016914066    0.000000000000
 O    1.399116339023   -5.525821914066    0.000000000000
CS   -0.121423779342    2.769924927403    0.000000000000
