8

 C    0.332235968443   -8.023234645673    0.000000000000
 H    1.367735968443   -8.399322645673    0.000000000000
 H   -0.200964031557   -8.403937645673    0.888337000000
 H   -0.200964031557   -8.403937645673   -0.888337000000
 C    0.290469968443   -6.467150645673    0.000000000000
 O   -0.876726031557   -5.960927645673    0.000000000000
 O    1.414540968443   -5.871732645673    0.000000000000
CS   -0.128272695898    2.923517838575    0.000000000000
