8

 C    0.341490746095   -8.230781084637    0.000000000000
 H    1.376990746095   -8.606869084637    0.000000000000
 H   -0.191709253905   -8.611484084637    0.888337000000
 H   -0.191709253905   -8.611484084637   -0.888337000000
 C    0.299724746095   -6.674697084637    0.000000000000
 O   -0.867471253905   -6.168474084637    0.000000000000
 O    1.423795746095   -6.079279084637    0.000000000000
CS   -0.132382045831    3.015673585279    0.000000000000
