8

 N   -0.054475833626   -0.724775250025   -0.453366820697
 H   -0.459124833626    0.093833749975   -0.004070820697
 H   -0.459124833626   -1.543384250025   -0.004070820697
 C    1.405962166374   -0.724775250025   -0.315329820697
 H    1.805065166374   -1.606716250025   -0.821718820697
 H    1.774643166374   -0.724775250025    0.720500179303
 H    1.805065166374    0.157165749975   -0.821718820697
NA   -0.896494050843    0.978636078752    0.481555585939
