8

 N   -0.037558210287   -0.758999772323   -0.472151052205
 H   -0.442207210287    0.059609227677   -0.022855052205
 H   -0.442207210287   -1.577608772323   -0.022855052205
 C    1.422879789713   -0.758999772323   -0.334114052205
 H    1.821982789713   -1.640940772323   -0.840503052205
 H    1.791560789713   -0.758999772323    0.701715947795
 H    1.821982789713    0.122941227677   -0.840503052205
NA   -0.919337265434    1.024848131797    0.506919209580
