8

 N   -0.020640586949   -0.793224294622   -0.490935283713
 H   -0.425289586949    0.025384705378   -0.041639283713
 H   -0.425289586949   -1.611833294622   -0.041639283713
 C    1.439797413051   -0.793224294622   -0.352898283713
 H    1.838900413051   -1.675165294622   -0.859287283713
 H    1.808478413051   -0.793224294622    0.682931716287
 H    1.838900413051    0.088716705378   -0.859287283713
NA   -0.942180480024    1.071060184841    0.532282833220
