8

 N    0.013194659729   -0.861673339219   -0.528503746730
 H   -0.391454340271   -0.043064339219   -0.079207746730
 H   -0.391454340271   -1.680282339219   -0.079207746730
 C    1.473632659729   -0.861673339219   -0.390466746730
 H    1.872735659729   -1.743614339219   -0.896855746730
 H    1.842313659729   -0.861673339219    0.645363253270
 H    1.872735659729    0.020267660781   -0.896855746730
NA   -0.987866909204    1.163484290930    0.583010080501
