8

 N    0.030112283067   -0.895897861518   -0.547287978238
 H   -0.374536716933   -0.077288861518   -0.097991978238
 H   -0.374536716933   -1.714506861518   -0.097991978238
 C    1.490550283067   -0.895897861518   -0.409250978238
 H    1.889653283067   -1.777838861518   -0.915639978238
 H    1.859231283067   -0.895897861518    0.626579021762
 H    1.889653283067   -0.013956861518   -0.915639978238
NA   -1.010710123794    1.209696343975    0.608373704142
