8

 N    0.063947529745   -0.964346906116   -0.584856441254
 H   -0.340701470255   -0.145737906116   -0.135560441254
 H   -0.340701470255   -1.782955906116   -0.135560441254
 C    1.524385529745   -0.964346906116   -0.446819441254
 H    1.923488529745   -1.846287906116   -0.953208441254
 H    1.893066529745   -0.964346906116    0.589010558746
 H    1.923488529745   -0.082405906116   -0.953208441254
NA   -1.056396552975    1.302120450064    0.659100951423
