8

 N    0.080865153083   -0.998571428414   -0.603640672763
 H   -0.323783846917   -0.179962428414   -0.154344672763
 H   -0.323783846917   -1.817180428414   -0.154344672763
 C    1.541303153083   -0.998571428414   -0.465603672763
 H    1.940406153083   -1.880512428414   -0.971992672763
 H    1.909984153083   -0.998571428414    0.570226327237
 H    1.940406153083   -0.116630428414   -0.971992672763
NA   -1.079239767565    1.348332503109    0.684464575064
