8

 N    0.114700399761   -1.067020473012   -0.641209135779
 H   -0.289948600239   -0.248411473012   -0.191913135779
 H   -0.289948600239   -1.885629473012   -0.191913135779
 C    1.575138399761   -1.067020473012   -0.503172135779
 H    1.974241399761   -1.948961473012   -1.009561135779
 H    1.943819399761   -1.067020473012    0.532657864221
 H    1.974241399761   -0.185079473012   -1.009561135779
NA   -1.124926196745    1.440756609198    0.735191822345
