8

 N    0.165453269777   -1.169694039908   -0.697561830304
 H   -0.239195730223   -0.351085039908   -0.248265830304
 H   -0.239195730223   -1.988303039908   -0.248265830304
 C    1.625891269777   -1.169694039908   -0.559524830304
 H    2.024994269777   -2.051635039908   -1.065913830304
 H    1.994572269777   -1.169694039908    0.476305169696
 H    2.024994269777   -0.287753039908   -1.065913830304
NA   -1.193455840516    1.579392768332    0.811282693266
