8

 N    0.216206139793   -1.272367606804   -0.753914524828
 H   -0.188442860207   -0.453758606804   -0.304618524828
 H   -0.188442860207   -2.090976606804   -0.304618524828
 C    1.676644139793   -1.272367606804   -0.615877524828
 H    2.075747139793   -2.154308606804   -1.122266524828
 H    2.045325139793   -1.272367606804    0.419952475172
 H    2.075747139793   -0.390426606804   -1.122266524828
NA   -1.261985484286    1.718028927466    0.887373564188
