8

 N    0.233123763131   -1.306592129103   -0.772698756337
 H   -0.171525236869   -0.487983129103   -0.323402756337
 H   -0.171525236869   -2.125201129103   -0.323402756337
 C    1.693561763131   -1.306592129103   -0.634661756337
 H    2.092664763131   -2.188533129103   -1.141050756337
 H    2.062242763131   -1.306592129103    0.401168243663
 H    2.092664763131   -0.424651129103   -1.141050756337
NA   -1.284828698876    1.764240980510    0.912737187828
