8

 N    0.250041386470   -1.340816651401   -0.791482987845
 H   -0.154607613530   -0.522207651401   -0.342186987845
 H   -0.154607613530   -2.159425651401   -0.342186987845
 C    1.710479386470   -1.340816651401   -0.653445987845
 H    2.109582386470   -2.222757651401   -1.159834987845
 H    2.079160386470   -1.340816651401    0.382384012155
 H    2.109582386470   -0.458875651401   -1.159834987845
NA   -1.307671913467    1.810453033555    0.938100811469
