8

 N    0.266959009809   -1.375041173700   -0.810267219353
 H   -0.137689990191   -0.556432173700   -0.360971219353
 H   -0.137689990191   -2.193650173700   -0.360971219353
 C    1.727397009809   -1.375041173700   -0.672230219353
 H    2.126500009809   -2.256982173700   -1.178619219353
 H    2.096078009809   -1.375041173700    0.363599780647
 H    2.126500009809   -0.493100173700   -1.178619219353
NA   -1.330515128057    1.856665086600    0.963464435109
