8

 N    0.317711879825   -1.477714740596   -0.866619913878
 H   -0.086937120175   -0.659105740596   -0.417323913878
 H   -0.086937120175   -2.296323740596   -0.417323913878
 C    1.778149879825   -1.477714740596   -0.728582913878
 H    2.177252879825   -2.359655740596   -1.234971913878
 H    2.146830879825   -1.477714740596    0.307247086122
 H    2.177252879825   -0.595773740596   -1.234971913878
NA   -1.399044771827    1.995301245733    1.039555306031
