8

 N    0.334629503163   -1.511939262895   -0.885404145386
 H   -0.070019496837   -0.693330262895   -0.436108145386
 H   -0.070019496837   -2.330548262895   -0.436108145386
 C    1.795067503163   -1.511939262895   -0.747367145386
 H    2.194170503163   -2.393880262895   -1.253756145386
 H    2.163748503163   -1.511939262895    0.288462854614
 H    2.194170503163   -0.629998262895   -1.253756145386
NA   -1.421887986418    2.041513298778    1.064918929671
