8

 N    0.368464749841   -1.580388307492   -0.922972608402
 H   -0.036184250159   -0.761779307492   -0.473676608402
 H   -0.036184250159   -2.398997307492   -0.473676608402
 C    1.828902749841   -1.580388307492   -0.784935608402
 H    2.228005749841   -2.462329307492   -1.291324608402
 H    2.197583749841   -1.580388307492    0.250894391598
 H    2.228005749841   -0.698447307492   -1.291324608402
NA   -1.467574415598    2.133937404867    1.115646176952
