8

 N    0.385382373179   -1.614612829791   -0.941756839911
 H   -0.019266626821   -0.796003829791   -0.492460839911
 H   -0.019266626821   -2.433221829791   -0.492460839911
 C    1.845820373179   -1.614612829791   -0.803719839911
 H    2.244923373179   -2.496553829791   -1.310108839911
 H    2.214501373179   -1.614612829791    0.232110160089
 H    2.244923373179   -0.732671829791   -1.310108839911
NA   -1.490417630188    2.180149457912    1.141009800593
