8

 N    0.402299996518   -1.648837352090   -0.960541071419
 H   -0.002349003482   -0.830228352090   -0.511245071419
 H   -0.002349003482   -2.467446352090   -0.511245071419
 C    1.862737996518   -1.648837352090   -0.822504071419
 H    2.261840996518   -2.530778352090   -1.328893071419
 H    2.231418996518   -1.648837352090    0.213325928581
 H    2.261840996518   -0.766896352090   -1.328893071419
NA   -1.513260844778    2.226361510957    1.166373424233
