8

 N    0.436135243195   -1.717286396687   -0.998109534435
 H    0.031486243195   -0.898677396687   -0.548813534435
 H    0.031486243195   -2.535895396687   -0.548813534435
 C    1.896573243195   -1.717286396687   -0.860072534435
 H    2.295676243195   -2.599227396687   -1.366461534435
 H    2.265254243195   -1.717286396687    0.175757465565
 H    2.295676243195   -0.835345396687   -1.366461534435
NA   -1.558947273959    2.318785617046    1.217100671514
