8

 N    0.453052866534   -1.751510918986   -1.016893765944
 H    0.048403866534   -0.932901918986   -0.567597765944
 H    0.048403866534   -2.570119918986   -0.567597765944
 C    1.913490866534   -1.751510918986   -0.878856765944
 H    2.312593866534   -2.633451918986   -1.385245765944
 H    2.282171866534   -1.751510918986    0.156973234056
 H    2.312593866534   -0.869569918986   -1.385245765944
NA   -1.581790488549    2.364997670090    1.242464295155
