8

 N    0.537640983227   -1.922633530479   -1.110814923485
 H    0.132991983227   -1.104024530479   -0.661518923485
 H    0.132991983227   -2.741242530479   -0.661518923485
 C    1.998078983227   -1.922633530479   -0.972777923485
 H    2.397181983227   -2.804574530479   -1.479166923485
 H    2.366759983227   -1.922633530479    0.063052076515
 H    2.397181983227   -1.040692530479   -1.479166923485
NA   -1.696006561500    2.596057935313    1.369282413357
