8

 N    0.554558606566   -1.956858052778   -1.129599154993
 H    0.149909606566   -1.138249052778   -0.680303154993
 H    0.149909606566   -2.775467052778   -0.680303154993
 C    2.014996606566   -1.956858052778   -0.991562154993
 H    2.414099606566   -2.838799052778   -1.497951154993
 H    2.383677606566   -1.956858052778    0.044267845007
 H    2.414099606566   -1.074917052778   -1.497951154993
NA   -1.718849776090    2.642269988358    1.394646036998
