8

 N    0.571476229905   -1.991082575077   -1.148383386501
 H    0.166827229905   -1.172473575077   -0.699087386501
 H    0.166827229905   -2.809691575077   -0.699087386501
 C    2.031914229905   -1.991082575077   -1.010346386501
 H    2.431017229905   -2.873023575077   -1.516735386501
 H    2.400595229905   -1.991082575077    0.025483613499
 H    2.431017229905   -1.109141575077   -1.516735386501
NA   -1.741692990680    2.688482041403    1.420009660638
