8

 N    0.605311476582   -2.059531619674   -1.185951849518
 H    0.200662476582   -1.240922619674   -0.736655849518
 H    0.200662476582   -2.878140619674   -0.736655849518
 C    2.065749476582   -2.059531619674   -1.047914849518
 H    2.464852476582   -2.941472619674   -1.554303849518
 H    2.434430476582   -2.059531619674   -0.012084849518
 H    2.464852476582   -1.177590619674   -1.554303849518
NA   -1.787379419860    2.780906147492    1.470736907919
