8

 N    0.656064346598   -2.162205186570   -1.242304544042
 H    0.251415346598   -1.343596186570   -0.793008544042
 H    0.251415346598   -2.980814186570   -0.793008544042
 C    2.116502346598   -2.162205186570   -1.104267544042
 H    2.515605346598   -3.044146186570   -1.610656544042
 H    2.485183346598   -2.162205186570   -0.068437544042
 H    2.515605346598   -1.280264186570   -1.610656544042
NA   -1.855909063631    2.919542306626    1.546827778841
