8

 N    0.672981969937   -2.196429708869   -1.261088775550
 H    0.268332969937   -1.377820708869   -0.811792775550
 H    0.268332969937   -3.015038708869   -0.811792775550
 C    2.133419969937   -2.196429708869   -1.123051775550
 H    2.532522969937   -3.078370708869   -1.629440775550
 H    2.502100969937   -2.196429708869   -0.087221775550
 H    2.532522969937   -1.314488708869   -1.629440775550
NA   -1.878752278221    2.965754359670    1.572191402481
