8

 N    0.740652463292   -2.333327798064   -1.336225701583
 H    0.336003463292   -1.514718798064   -0.886929701583
 H    0.336003463292   -3.151936798064   -0.886929701583
 C    2.201090463292   -2.333327798064   -1.198188701583
 H    2.600193463292   -3.215268798064   -1.704577701583
 H    2.569771463292   -2.333327798064   -0.162358701583
 H    2.600193463292   -1.451386798064   -1.704577701583
NA   -1.970125136582    3.150602571849    1.673645897043
