8

 N    0.808322956646   -2.470225887259   -1.411362627616
 H    0.403673956646   -1.651616887259   -0.962066627616
 H    0.403673956646   -3.288834887259   -0.962066627616
 C    2.268760956646   -2.470225887259   -1.273325627616
 H    2.667863956646   -3.352166887259   -1.779714627616
 H    2.637441956646   -2.470225887259   -0.237495627616
 H    2.667863956646   -1.588284887259   -1.779714627616
NA   -2.061497994943    3.335450784027    1.775100391605
