8

 N    0.875993450001   -2.607123976453   -1.486499553649
 H    0.471344450001   -1.788514976453   -1.037203553649
 H    0.471344450001   -3.425732976453   -1.037203553649
 C    2.336431450001   -2.607123976453   -1.348462553649
 H    2.735534450001   -3.489064976453   -1.854851553649
 H    2.705112450001   -2.607123976453   -0.312632553649
 H    2.735534450001   -1.725182976453   -1.854851553649
NA   -2.152870853303    3.520298996206    1.876554886167
