8

 N    0.926746320017   -2.709797543350   -1.542852248174
 H    0.522097320017   -1.891188543350   -1.093556248174
 H    0.522097320017   -3.528406543350   -1.093556248174
 C    2.387184320017   -2.709797543350   -1.404815248174
 H    2.786287320017   -3.591738543350   -1.911204248174
 H    2.755865320017   -2.709797543350   -0.368985248174
 H    2.786287320017   -1.827856543350   -1.911204248174
NA   -2.221400497074    3.658935155340    1.952645757089
