8

 N    0.977499190033   -2.812471110246   -1.599204942699
 H    0.572850190033   -1.993862110246   -1.149908942699
 H    0.572850190033   -3.631080110246   -1.149908942699
 C    2.437937190033   -2.812471110246   -1.461167942699
 H    2.837040190033   -3.694412110246   -1.967556942699
 H    2.806618190033   -2.812471110246   -0.425337942699
 H    2.837040190033   -1.930530110246   -1.967556942699
NA   -2.289930140844    3.797571314473    2.028736628010
