8

 N    0.994416813372   -2.846695632544   -1.617989174207
 H    0.589767813372   -2.028086632544   -1.168693174207
 H    0.589767813372   -3.665304632544   -1.168693174207
 C    2.454854813372   -2.846695632544   -1.479952174207
 H    2.853957813372   -3.728636632544   -1.986341174207
 H    2.823535813372   -2.846695632544   -0.444122174207
 H    2.853957813372   -1.964754632544   -1.986341174207
NA   -2.312773355434    3.843783367518    2.054100251651
