8

 N    1.011334436710   -2.880920154843   -1.636773405715
 H    0.606685436710   -2.062311154843   -1.187477405715
 H    0.606685436710   -3.699529154843   -1.187477405715
 C    2.471772436710   -2.880920154843   -1.498736405715
 H    2.870875436710   -3.762861154843   -2.005125405715
 H    2.840453436710   -2.880920154843   -0.462906405715
 H    2.870875436710   -1.998979154843   -2.005125405715
NA   -2.335616570025    3.889995420563    2.079463875291
