8

 N    1.079004930065   -3.017818244038   -1.711910331748
 H    0.674355930065   -2.199209244038   -1.262614331748
 H    0.674355930065   -3.836427244038   -1.262614331748
 C    2.539442930065   -3.017818244038   -1.573873331748
 H    2.938545930065   -3.899759244038   -2.080262331748
 H    2.908123930065   -3.017818244038   -0.538043331748
 H    2.938545930065   -2.135877244038   -2.080262331748
NA   -2.426989428385    4.074843632741    2.180918369854
