8

 N    1.095922553404   -3.052042766337   -1.730694563256
 H    0.691273553404   -2.233433766337   -1.281398563256
 H    0.691273553404   -3.870651766337   -1.281398563256
 C    2.556360553404   -3.052042766337   -1.592657563256
 H    2.955463553404   -3.933983766337   -2.099046563256
 H    2.925041553404   -3.052042766337   -0.556827563256
 H    2.955463553404   -2.170101766337   -2.099046563256
NA   -2.449832642976    4.121055685786    2.206281993494
