8

 N    1.146675423420   -3.154716333233   -1.787047257781
 H    0.742026423420   -2.336107333233   -1.337751257781
 H    0.742026423420   -3.973325333233   -1.337751257781
 C    2.607113423420   -3.154716333233   -1.649010257781
 H    3.006216423420   -4.036657333233   -2.155399257781
 H    2.975794423420   -3.154716333233   -0.613180257781
 H    3.006216423420   -2.272775333233   -2.155399257781
NA   -2.518362286746    4.259691844920    2.282372864416
