8

 N    1.163593046758   -3.188940855531   -1.805831489289
 H    0.758944046758   -2.370331855531   -1.356535489289
 H    0.758944046758   -4.007549855531   -1.356535489289
 C    2.624031046758   -3.188940855531   -1.667794489289
 H    3.023134046758   -4.070881855531   -2.174183489289
 H    2.992712046758   -3.188940855531   -0.631964489289
 H    3.023134046758   -2.306999855531   -2.174183489289
NA   -2.541205501336    4.305903897964    2.307736488056
