8

 N    1.180510670097   -3.223165377830   -1.824615720797
 H    0.775861670097   -2.404556377830   -1.375319720797
 H    0.775861670097   -4.041774377830   -1.375319720797
 C    2.640948670097   -3.223165377830   -1.686578720797
 H    3.040051670097   -4.105106377830   -2.192967720797
 H    3.009629670097   -3.223165377830   -0.650748720797
 H    3.040051670097   -2.341224377830   -2.192967720797
NA   -2.564048715926    4.352115951009    2.333100111697
