8

 N    1.214345916774   -3.291614422428   -1.862184183814
 H    0.809696916774   -2.473005422428   -1.412888183814
 H    0.809696916774   -4.110223422428   -1.412888183814
 C    2.674783916774   -3.291614422428   -1.724147183814
 H    3.073886916774   -4.173555422428   -2.230536183814
 H    3.043464916774   -3.291614422428   -0.688317183814
 H    3.073886916774   -2.409673422428   -2.230536183814
NA   -2.609735145107    4.444540057098    2.383827358978
