8

 N    1.383522150161   -3.633859645415   -2.050026498896
 H    0.978873150161   -2.815250645415   -1.600730498896
 H    0.978873150161   -4.452468645415   -1.600730498896
 C    2.843960150161   -3.633859645415   -1.911989498896
 H    3.243063150161   -4.515800645415   -2.418378498896
 H    3.212641150161   -3.633859645415   -0.876159498896
 H    3.243063150161   -2.751918645415   -2.418378498896
NA   -2.838167291009    4.906660587544    2.637463595383
