13

 C    1.243525909044    1.471070582231    0.157724498752
 H    0.776905909044    2.463237582231    0.157724498752
 H    1.880674909044    1.366653582231    1.050230498752
 H    1.880674909044    1.366653582231   -0.734781501248
 C    0.145350909044    0.419985582231    0.157724498752
 O   -1.060812090956    0.698039582231    0.157724498752
 N    0.576279909044   -0.880163417769    0.157724498752
 H    1.568456909044   -1.074064417769    0.157724498752
 C   -0.382055090956   -1.978691417769    0.157724498752
 H   -1.026120090956   -1.930212417769    1.048432498752
 H   -1.026120090956   -1.930212417769   -0.732983501248
 H    0.171170909044   -2.927116417769    0.157724498752
LI   -1.060812090956    0.698039582231   -1.642275501248
