13

 C    1.243525909044    1.471070582231    0.166486970905
 H    0.776905909044    2.463237582231    0.166486970905
 H    1.880674909044    1.366653582231    1.058992970905
 H    1.880674909044    1.366653582231   -0.726019029095
 C    0.145350909044    0.419985582231    0.166486970905
 O   -1.060812090956    0.698039582231    0.166486970905
 N    0.576279909044   -0.880163417769    0.166486970905
 H    1.568456909044   -1.074064417769    0.166486970905
 C   -0.382055090956   -1.978691417769    0.166486970905
 H   -1.026120090956   -1.930212417769    1.057194970905
 H   -1.026120090956   -1.930212417769   -0.724221029095
 H    0.171170909044   -2.927116417769    0.166486970905
LI   -1.060812090956    0.698039582231   -1.733513029095
