13

 C    1.243525909044    1.471070582231    0.184011915210
 H    0.776905909044    2.463237582231    0.184011915210
 H    1.880674909044    1.366653582231    1.076517915210
 H    1.880674909044    1.366653582231   -0.708494084790
 C    0.145350909044    0.419985582231    0.184011915210
 O   -1.060812090956    0.698039582231    0.184011915210
 N    0.576279909044   -0.880163417769    0.184011915210
 H    1.568456909044   -1.074064417769    0.184011915210
 C   -0.382055090956   -1.978691417769    0.184011915210
 H   -1.026120090956   -1.930212417769    1.074719915210
 H   -1.026120090956   -1.930212417769   -0.706696084790
 H    0.171170909044   -2.927116417769    0.184011915210
LI   -1.060812090956    0.698039582231   -1.915988084790
