13

 C    1.243525909044    1.471070582231    0.210299331669
 H    0.776905909044    2.463237582231    0.210299331669
 H    1.880674909044    1.366653582231    1.102805331669
 H    1.880674909044    1.366653582231   -0.682206668331
 C    0.145350909044    0.419985582231    0.210299331669
 O   -1.060812090956    0.698039582231    0.210299331669
 N    0.576279909044   -0.880163417769    0.210299331669
 H    1.568456909044   -1.074064417769    0.210299331669
 C   -0.382055090956   -1.978691417769    0.210299331669
 H   -1.026120090956   -1.930212417769    1.101007331669
 H   -1.026120090956   -1.930212417769   -0.680408668331
 H    0.171170909044   -2.927116417769    0.210299331669
LI   -1.060812090956    0.698039582231   -2.189700668331
