13

 C    1.243525909044    1.471070582231    0.341736413962
 H    0.776905909044    2.463237582231    0.341736413962
 H    1.880674909044    1.366653582231    1.234242413962
 H    1.880674909044    1.366653582231   -0.550769586038
 C    0.145350909044    0.419985582231    0.341736413962
 O   -1.060812090956    0.698039582231    0.341736413962
 N    0.576279909044   -0.880163417769    0.341736413962
 H    1.568456909044   -1.074064417769    0.341736413962
 C   -0.382055090956   -1.978691417769    0.341736413962
 H   -1.026120090956   -1.930212417769    1.232444413962
 H   -1.026120090956   -1.930212417769   -0.548971586038
 H    0.171170909044   -2.927116417769    0.341736413962
LI   -1.060812090956    0.698039582231   -3.558263586038
