13

 C    1.243525909044    1.471070582231    0.368023830421
 H    0.776905909044    2.463237582231    0.368023830421
 H    1.880674909044    1.366653582231    1.260529830421
 H    1.880674909044    1.366653582231   -0.524482169579
 C    0.145350909044    0.419985582231    0.368023830421
 O   -1.060812090956    0.698039582231    0.368023830421
 N    0.576279909044   -0.880163417769    0.368023830421
 H    1.568456909044   -1.074064417769    0.368023830421
 C   -0.382055090956   -1.978691417769    0.368023830421
 H   -1.026120090956   -1.930212417769    1.258731830421
 H   -1.026120090956   -1.930212417769   -0.522684169579
 H    0.171170909044   -2.927116417769    0.368023830421
LI   -1.060812090956    0.698039582231   -3.831976169579
