13

 C    1.243525909044    1.471070582231    0.385548774726
 H    0.776905909044    2.463237582231    0.385548774726
 H    1.880674909044    1.366653582231    1.278054774726
 H    1.880674909044    1.366653582231   -0.506957225274
 C    0.145350909044    0.419985582231    0.385548774726
 O   -1.060812090956    0.698039582231    0.385548774726
 N    0.576279909044   -0.880163417769    0.385548774726
 H    1.568456909044   -1.074064417769    0.385548774726
 C   -0.382055090956   -1.978691417769    0.385548774726
 H   -1.026120090956   -1.930212417769    1.276256774726
 H   -1.026120090956   -1.930212417769   -0.505159225274
 H    0.171170909044   -2.927116417769    0.385548774726
LI   -1.060812090956    0.698039582231   -4.014451225274
