13

 C    1.243525909044    1.471070582231    0.622135522854
 H    0.776905909044    2.463237582231    0.622135522854
 H    1.880674909044    1.366653582231    1.514641522854
 H    1.880674909044    1.366653582231   -0.270370477146
 C    0.145350909044    0.419985582231    0.622135522854
 O   -1.060812090956    0.698039582231    0.622135522854
 N    0.576279909044   -0.880163417769    0.622135522854
 H    1.568456909044   -1.074064417769    0.622135522854
 C   -0.382055090956   -1.978691417769    0.622135522854
 H   -1.026120090956   -1.930212417769    1.512843522854
 H   -1.026120090956   -1.930212417769   -0.268572477146
 H    0.171170909044   -2.927116417769    0.622135522854
LI   -1.060812090956    0.698039582231   -6.477864477146
