13

 C    1.243525909044    1.471070582231    0.727285188688
 H    0.776905909044    2.463237582231    0.727285188688
 H    1.880674909044    1.366653582231    1.619791188688
 H    1.880674909044    1.366653582231   -0.165220811312
 C    0.145350909044    0.419985582231    0.727285188688
 O   -1.060812090956    0.698039582231    0.727285188688
 N    0.576279909044   -0.880163417769    0.727285188688
 H    1.568456909044   -1.074064417769    0.727285188688
 C   -0.382055090956   -1.978691417769    0.727285188688
 H   -1.026120090956   -1.930212417769    1.617993188688
 H   -1.026120090956   -1.930212417769   -0.163422811312
 H    0.171170909044   -2.927116417769    0.727285188688
LI   -1.060812090956    0.698039582231   -7.572714811312
