13

 C    1.243525909044    1.471070582231    0.762335077300
 H    0.776905909044    2.463237582231    0.762335077300
 H    1.880674909044    1.366653582231    1.654841077300
 H    1.880674909044    1.366653582231   -0.130170922700
 C    0.145350909044    0.419985582231    0.762335077300
 O   -1.060812090956    0.698039582231    0.762335077300
 N    0.576279909044   -0.880163417769    0.762335077300
 H    1.568456909044   -1.074064417769    0.762335077300
 C   -0.382055090956   -1.978691417769    0.762335077300
 H   -1.026120090956   -1.930212417769    1.653043077300
 H   -1.026120090956   -1.930212417769   -0.128372922700
 H    0.171170909044   -2.927116417769    0.762335077300
LI   -1.060812090956    0.698039582231   -7.937664922700
