25

 C    3.950919443646    1.170303083095    0.000000000000
 H    3.240119443646    2.002943083095    0.000000000000
 H    4.591999443646    1.240843083095    0.890740000000
 H    4.591999443646    1.240843083095   -0.890740000000
 C    3.193589443646   -0.136986916905    0.000000000000
 O    1.939389443646   -0.189256916905    0.000000000000
 N    3.928499443646   -1.262466916905    0.000000000000
 H    4.937419443646   -1.176826916905    0.000000000000
 C    3.320079443646   -2.590296916905    0.000000000000
 H    2.698109443646   -2.725206916905    0.895110000000
 H    2.698109443646   -2.725206916905   -0.895110000000
 H    4.120399443646   -3.337826916905    0.000000000000
NA   -0.188200556354    0.018363083095    0.000000000000
 O   -1.880163572133    0.183472602004    0.000000000000
 C   -3.134365174345    0.131210521024    0.000000000000
 C   -3.891695518760   -1.176075830748    0.000000000000
 H   -3.180899195544   -2.008716173154    0.000000000000
 H   -4.532782046250   -1.246615972730   -0.890739148707
 H   -4.532782046250   -1.246615972730    0.890739148707
 N   -3.869269012997    1.256684030721    0.000000000000
 H   -4.878191140449    1.171047337438    0.000000000000
 C   -3.260848828891    2.584519874368    0.000000000000
 H   -2.638877762118    2.719428848399   -0.895118102221
 H   -2.638877762118    2.719428848399    0.895118102221
 H   -4.061169428831    3.332046900108    0.000000000000
