25

 C    4.079913090675    1.157715290806    0.000000000000
 H    3.369113090675    1.990355290806    0.000000000000
 H    4.720993090675    1.228255290806    0.890740000000
 H    4.720993090675    1.228255290806   -0.890740000000
 C    3.322583090675   -0.149574709194    0.000000000000
 O    2.068383090675   -0.201844709194    0.000000000000
 N    4.057493090675   -1.275054709194    0.000000000000
 H    5.066413090675   -1.189414709194    0.000000000000
 C    3.449073090675   -2.602884709194    0.000000000000
 H    2.827103090675   -2.737794709194    0.895110000000
 H    2.827103090675   -2.737794709194   -0.895110000000
 H    4.249393090675   -3.350414709194    0.000000000000
NA   -0.059206909325    0.005775290806    0.000000000000
 O   -2.049751633771    0.200021783641    0.000000000000
 C   -3.303953235983    0.147759702660    0.000000000000
 C   -4.061283580398   -1.159526649111    0.000000000000
 H   -3.350487257181   -1.992166991517    0.000000000000
 H   -4.702370107888   -1.230066791094   -0.890739148707
 H   -4.702370107888   -1.230066791094    0.890739148707
 N   -4.038857074635    1.273233212357    0.000000000000
 H   -5.047779202087    1.187596519074    0.000000000000
 C   -3.430436890529    2.601069056004    0.000000000000
 H   -2.808465823756    2.735978030036   -0.895118102221
 H   -2.808465823756    2.735978030036    0.895118102221
 H   -4.230757490469    3.348596081744    0.000000000000
