25

 C    4.165908855361    1.149323429280    0.000000000000
 H    3.455108855361    1.981963429280    0.000000000000
 H    4.806988855361    1.219863429280    0.890740000000
 H    4.806988855361    1.219863429280   -0.890740000000
 C    3.408578855361   -0.157966570720    0.000000000000
 O    2.154378855361   -0.210236570720    0.000000000000
 N    4.143488855361   -1.283446570720    0.000000000000
 H    5.152408855361   -1.197806570720    0.000000000000
 C    3.535068855361   -2.611276570720    0.000000000000
 H    2.913098855361   -2.746186570720    0.895110000000
 H    2.913098855361   -2.746186570720   -0.895110000000
 H    4.335388855361   -3.358806570720    0.000000000000
NA    0.026788855361   -0.002616570720    0.000000000000
 O   -2.162810341530    0.211054571398    0.000000000000
 C   -3.417011943742    0.158792490418    0.000000000000
 C   -4.174342288157   -1.148493861354    0.000000000000
 H   -3.463545964940   -1.981134203760    0.000000000000
 H   -4.815428815647   -1.219034003337   -0.890739148707
 H   -4.815428815647   -1.219034003337    0.890739148707
 N   -4.151915782393    1.284266000115    0.000000000000
 H   -5.160837909846    1.198629306831    0.000000000000
 C   -3.543495598288    2.612101843762    0.000000000000
 H   -2.921524531515    2.747010817793   -0.895118102221
 H   -2.921524531515    2.747010817793    0.895118102221
 H   -4.343816198228    3.359628869502    0.000000000000
