25

 C    4.208906737704    1.145127498517    0.000000000000
 H    3.498106737704    1.977767498517    0.000000000000
 H    4.849986737704    1.215667498517    0.890740000000
 H    4.849986737704    1.215667498517   -0.890740000000
 C    3.451576737704   -0.162162501483    0.000000000000
 O    2.197376737704   -0.214432501483    0.000000000000
 N    4.186486737704   -1.287642501483    0.000000000000
 H    5.195406737704   -1.202002501483    0.000000000000
 C    3.578066737704   -2.615472501483    0.000000000000
 H    2.956096737704   -2.750382501483    0.895110000000
 H    2.956096737704   -2.750382501483   -0.895110000000
 H    4.378386737704   -3.363002501483    0.000000000000
NA    0.069786737704   -0.006812501483    0.000000000000
 O   -2.219339695409    0.216570965277    0.000000000000
 C   -3.473541297621    0.164308884297    0.000000000000
 C   -4.230871642036   -1.142977467475    0.000000000000
 H   -3.520075318819   -1.975617809881    0.000000000000
 H   -4.871958169526   -1.213517609458   -0.890739148707
 H   -4.871958169526   -1.213517609458    0.890739148707
 N   -4.208445136272    1.289782393993    0.000000000000
 H   -5.217367263725    1.204145700710    0.000000000000
 C   -3.600024952167    2.617618237640    0.000000000000
 H   -2.978053885394    2.752527211672   -0.895118102221
 H   -2.978053885394    2.752527211672    0.895118102221
 H   -4.400345552107    3.365145263380    0.000000000000
