25

 C    4.251904620047    1.140931567754    0.000000000000
 H    3.541104620047    1.973571567754    0.000000000000
 H    4.892984620047    1.211471567754    0.890740000000
 H    4.892984620047    1.211471567754   -0.890740000000
 C    3.494574620047   -0.166358432246    0.000000000000
 O    2.240374620047   -0.218628432246    0.000000000000
 N    4.229484620047   -1.291838432246    0.000000000000
 H    5.238404620047   -1.206198432246    0.000000000000
 C    3.621064620047   -2.619668432246    0.000000000000
 H    2.999094620047   -2.754578432246    0.895110000000
 H    2.999094620047   -2.754578432246   -0.895110000000
 H    4.421384620047   -3.367198432246    0.000000000000
NA    0.112784620047   -0.011008432246    0.000000000000
 O   -2.275869049288    0.222087359155    0.000000000000
 C   -3.530070651501    0.169825278175    0.000000000000
 C   -4.287400995915   -1.137461073597    0.000000000000
 H   -3.576604672699   -1.970101416003    0.000000000000
 H   -4.928487523405   -1.208001215579   -0.890739148707
 H   -4.928487523405   -1.208001215579    0.890739148707
 N   -4.264974490152    1.295298787872    0.000000000000
 H   -5.273896617604    1.209662094589    0.000000000000
 C   -3.656554306047    2.623134631519    0.000000000000
 H   -3.034583239274    2.758043605550   -0.895118102221
 H   -3.034583239274    2.758043605550    0.895118102221
 H   -4.456874905987    3.370661657259    0.000000000000
