25

 C    4.294902502390    1.136735636991    0.000000000000
 H    3.584102502390    1.969375636991    0.000000000000
 H    4.935982502390    1.207275636991    0.890740000000
 H    4.935982502390    1.207275636991   -0.890740000000
 C    3.537572502390   -0.170554363009    0.000000000000
 O    2.283372502390   -0.222824363009    0.000000000000
 N    4.272482502390   -1.296034363009    0.000000000000
 H    5.281402502390   -1.210394363009    0.000000000000
 C    3.664062502390   -2.623864363009    0.000000000000
 H    3.042092502390   -2.758774363009    0.895110000000
 H    3.042092502390   -2.758774363009   -0.895110000000
 H    4.464382502390   -3.371394363009    0.000000000000
NA    0.155782502390   -0.015204363009    0.000000000000
 O   -2.332398403168    0.227603753034    0.000000000000
 C   -3.586600005380    0.175341672054    0.000000000000
 C   -4.343930349794   -1.131944679718    0.000000000000
 H   -3.633134026578   -1.964585022124    0.000000000000
 H   -4.985016877285   -1.202484821700   -0.890739148707
 H   -4.985016877285   -1.202484821700    0.890739148707
 N   -4.321503844031    1.300815181751    0.000000000000
 H   -5.330425971484    1.215178488467    0.000000000000
 C   -3.713083659926    2.628651025398    0.000000000000
 H   -3.091112593153    2.763559999429   -0.895118102221
 H   -3.091112593153    2.763559999429    0.895118102221
 H   -4.513404259866    3.376178051138    0.000000000000
