25

 C    4.337900384733    1.132539706228    0.000000000000
 H    3.627100384733    1.965179706228    0.000000000000
 H    4.978980384733    1.203079706228    0.890740000000
 H    4.978980384733    1.203079706228   -0.890740000000
 C    3.580570384733   -0.174750293772    0.000000000000
 O    2.326370384733   -0.227020293772    0.000000000000
 N    4.315480384733   -1.300230293772    0.000000000000
 H    5.324400384733   -1.214590293772    0.000000000000
 C    3.707060384733   -2.628060293772    0.000000000000
 H    3.085090384733   -2.762970293772    0.895110000000
 H    3.085090384733   -2.762970293772   -0.895110000000
 H    4.507380384733   -3.375590293772    0.000000000000
NA    0.198780384733   -0.019400293772    0.000000000000
 O   -2.388927757047    0.233120146913    0.000000000000
 C   -3.643129359259    0.180858065933    0.000000000000
 C   -4.400459703674   -1.126428285839    0.000000000000
 H   -3.689663380457   -1.959068628245    0.000000000000
 H   -5.041546231164   -1.196968427822   -0.890739148707
 H   -5.041546231164   -1.196968427822    0.890739148707
 N   -4.378033197910    1.306331575629    0.000000000000
 H   -5.386955325363    1.220694882346    0.000000000000
 C   -3.769613013805    2.634167419276    0.000000000000
 H   -3.147641947032    2.769076393308   -0.895118102221
 H   -3.147641947032    2.769076393308    0.895118102221
 H   -4.569933613745    3.381694445016    0.000000000000
