25

 C    4.380898267076    1.128343775465    0.000000000000
 H    3.670098267076    1.960983775465    0.000000000000
 H    5.021978267076    1.198883775465    0.890740000000
 H    5.021978267076    1.198883775465   -0.890740000000
 C    3.623568267076   -0.178946224535    0.000000000000
 O    2.369368267076   -0.231216224535    0.000000000000
 N    4.358478267076   -1.304426224535    0.000000000000
 H    5.367398267076   -1.218786224535    0.000000000000
 C    3.750058267076   -2.632256224535    0.000000000000
 H    3.128088267076   -2.767166224535    0.895110000000
 H    3.128088267076   -2.767166224535   -0.895110000000
 H    4.550378267076   -3.379786224535    0.000000000000
NA    0.241778267076   -0.023596224535    0.000000000000
 O   -2.445457110926    0.238636540792    0.000000000000
 C   -3.699658713139    0.186374459811    0.000000000000
 C   -4.456989057553   -1.120911891960    0.000000000000
 H   -3.746192734337   -1.953552234366    0.000000000000
 H   -5.098075585043   -1.191452033943   -0.890739148707
 H   -5.098075585043   -1.191452033943    0.890739148707
 N   -4.434562551790    1.311847969508    0.000000000000
 H   -5.443484679242    1.226211276225    0.000000000000
 C   -3.826142367685    2.639683813155    0.000000000000
 H   -3.204171300912    2.774592787187   -0.895118102221
 H   -3.204171300912    2.774592787187    0.895118102221
 H   -4.626462967625    3.387210838895    0.000000000000
