25

 C    4.681883443477    1.098972260124    0.000000000000
 H    3.971083443477    1.931612260124    0.000000000000
 H    5.322963443477    1.169512260124    0.890740000000
 H    5.322963443477    1.169512260124   -0.890740000000
 C    3.924553443477   -0.208317739876    0.000000000000
 O    2.670353443477   -0.260587739876    0.000000000000
 N    4.659463443477   -1.333797739876    0.000000000000
 H    5.668383443477   -1.248157739876    0.000000000000
 C    4.051043443477   -2.661627739876    0.000000000000
 H    3.429073443477   -2.796537739876    0.895110000000
 H    3.429073443477   -2.796537739876   -0.895110000000
 H    4.851363443477   -3.409157739876    0.000000000000
NA    0.542763443477   -0.052967739876    0.000000000000
 O   -2.841162588082    0.277251297943    0.000000000000
 C   -4.095364190294    0.224989216963    0.000000000000
 C   -4.852694534708   -1.082297134809    0.000000000000
 H   -4.141898211492   -1.914937477215    0.000000000000
 H   -5.493781062199   -1.152837276792   -0.890739148707
 H   -5.493781062199   -1.152837276792    0.890739148707
 N   -4.830268028945    1.350462726659    0.000000000000
 H   -5.839190156398    1.264826033376    0.000000000000
 C   -4.221847844840    2.678298570306    0.000000000000
 H   -3.599876778067    2.813207544338   -0.895118102221
 H   -3.599876778067    2.813207544338    0.895118102221
 H   -5.022168444780    3.425825596046    0.000000000000
