25

 C    4.724881325820    1.094776329361    0.000000000000
 H    4.014081325820    1.927416329361    0.000000000000
 H    5.365961325820    1.165316329361    0.890740000000
 H    5.365961325820    1.165316329361   -0.890740000000
 C    3.967551325820   -0.212513670639    0.000000000000
 O    2.713351325820   -0.264783670639    0.000000000000
 N    4.702461325820   -1.337993670639    0.000000000000
 H    5.711381325820   -1.252353670639    0.000000000000
 C    4.094041325820   -2.665823670639    0.000000000000
 H    3.472071325820   -2.800733670639    0.895110000000
 H    3.472071325820   -2.800733670639   -0.895110000000
 H    4.894361325820   -3.413353670639    0.000000000000
NA    0.585761325820   -0.057163670639    0.000000000000
 O   -2.897691941961    0.282767691821    0.000000000000
 C   -4.151893544173    0.230505610841    0.000000000000
 C   -4.909223888588   -1.076780740931    0.000000000000
 H   -4.198427565371   -1.909421083337    0.000000000000
 H   -5.550310416078   -1.147320882913   -0.890739148707
 H   -5.550310416078   -1.147320882913    0.890739148707
 N   -4.886797382824    1.355979120538    0.000000000000
 H   -5.895719510277    1.270342427254    0.000000000000
 C   -4.278377198719    2.683814964185    0.000000000000
 H   -3.656406131946    2.818723938216   -0.895118102221
 H   -3.656406131946    2.818723938216    0.895118102221
 H   -5.078697798659    3.431341989925    0.000000000000
