25

 C    4.767879208163    1.090580398598    0.000000000000
 H    4.057079208163    1.923220398598    0.000000000000
 H    5.408959208163    1.161120398598    0.890740000000
 H    5.408959208163    1.161120398598   -0.890740000000
 C    4.010549208163   -0.216709601402    0.000000000000
 O    2.756349208163   -0.268979601402    0.000000000000
 N    4.745459208163   -1.342189601402    0.000000000000
 H    5.754379208163   -1.256549601402    0.000000000000
 C    4.137039208163   -2.670019601402    0.000000000000
 H    3.515069208163   -2.804929601402    0.895110000000
 H    3.515069208163   -2.804929601402   -0.895110000000
 H    4.937359208163   -3.417549601402    0.000000000000
NA    0.628759208163   -0.061359601402    0.000000000000
 O   -2.954221295840    0.288284085700    0.000000000000
 C   -4.208422898052    0.236022004720    0.000000000000
 C   -4.965753242467   -1.071264347052    0.000000000000
 H   -4.254956919251   -1.903904689458    0.000000000000
 H   -5.606839769957   -1.141804489034   -0.890739148707
 H   -5.606839769957   -1.141804489034    0.890739148707
 N   -4.943326736704    1.361495514417    0.000000000000
 H   -5.952248864156    1.275858821133    0.000000000000
 C   -4.334906552599    2.689331358064    0.000000000000
 H   -3.712935485825    2.824240332095   -0.895118102221
 H   -3.712935485825    2.824240332095    0.895118102221
 H   -5.135227152538    3.436858383804    0.000000000000
