25

 C    4.853874972849    1.082188537072    0.000000000000
 H    4.143074972849    1.914828537072    0.000000000000
 H    5.494954972849    1.152728537072    0.890740000000
 H    5.494954972849    1.152728537072   -0.890740000000
 C    4.096544972849   -0.225101462928    0.000000000000
 O    2.842344972849   -0.277371462928    0.000000000000
 N    4.831454972849   -1.350581462928    0.000000000000
 H    5.840374972849   -1.264941462928    0.000000000000
 C    4.223034972849   -2.678411462928    0.000000000000
 H    3.601064972849   -2.813321462928    0.895110000000
 H    3.601064972849   -2.813321462928   -0.895110000000
 H    5.023354972849   -3.425941462928    0.000000000000
NA    0.714754972849   -0.069751462928    0.000000000000
 O   -3.067280003599    0.299316873458    0.000000000000
 C   -4.321481605811    0.247054792477    0.000000000000
 C   -5.078811950226   -1.060231559294    0.000000000000
 H   -4.368015627009   -1.892871901701    0.000000000000
 H   -5.719898477716   -1.130771701277   -0.890739148707
 H   -5.719898477716   -1.130771701277    0.890739148707
 N   -5.056385444462    1.372528302174    0.000000000000
 H   -6.065307571915    1.286891608891    0.000000000000
 C   -4.447965260357    2.700364145821    0.000000000000
 H   -3.825994193584    2.835273119853   -0.895118102221
 H   -3.825994193584    2.835273119853    0.895118102221
 H   -5.248285860297    3.447891171561    0.000000000000
