25

 C    4.896872855192    1.077992606309    0.000000000000
 H    4.186072855192    1.910632606309    0.000000000000
 H    5.537952855192    1.148532606309    0.890740000000
 H    5.537952855192    1.148532606309   -0.890740000000
 C    4.139542855192   -0.229297393691    0.000000000000
 O    2.885342855192   -0.281567393691    0.000000000000
 N    4.874452855192   -1.354777393691    0.000000000000
 H    5.883372855192   -1.269137393691    0.000000000000
 C    4.266032855192   -2.682607393691    0.000000000000
 H    3.644062855192   -2.817517393691    0.895110000000
 H    3.644062855192   -2.817517393691   -0.895110000000
 H    5.066352855192   -3.430137393691    0.000000000000
NA    0.757752855192   -0.073947393691    0.000000000000
 O   -3.123809357478    0.304833267336    0.000000000000
 C   -4.378010959690    0.252571186356    0.000000000000
 C   -5.135341304105   -1.054715165416    0.000000000000
 H   -4.424544980889   -1.887355507822    0.000000000000
 H   -5.776427831595   -1.125255307398   -0.890739148707
 H   -5.776427831595   -1.125255307398    0.890739148707
 N   -5.112914798342    1.378044696053    0.000000000000
 H   -6.121836925794    1.292408002769    0.000000000000
 C   -4.504494614236    2.705880539700    0.000000000000
 H   -3.882523547463    2.840789513731   -0.895118102221
 H   -3.882523547463    2.840789513731    0.895118102221
 H   -5.304815214176    3.453407565440    0.000000000000
