25

 C    4.939870737535    1.073796675546    0.000000000000
 H    4.229070737535    1.906436675546    0.000000000000
 H    5.580950737535    1.144336675546    0.890740000000
 H    5.580950737535    1.144336675546   -0.890740000000
 C    4.182540737535   -0.233493324454    0.000000000000
 O    2.928340737535   -0.285763324454    0.000000000000
 N    4.917450737535   -1.358973324454    0.000000000000
 H    5.926370737535   -1.273333324454    0.000000000000
 C    4.309030737535   -2.686803324454    0.000000000000
 H    3.687060737535   -2.821713324454    0.895110000000
 H    3.687060737535   -2.821713324454   -0.895110000000
 H    5.109350737535   -3.434333324454    0.000000000000
NA    0.800750737535   -0.078143324454    0.000000000000
 O   -3.180338711358    0.310349661215    0.000000000000
 C   -4.434540313570    0.258087580235    0.000000000000
 C   -5.191870657984   -1.049198771537    0.000000000000
 H   -4.481074334768   -1.881839113943    0.000000000000
 H   -5.832957185475   -1.119738913520   -0.890739148707
 H   -5.832957185475   -1.119738913520    0.890739148707
 N   -5.169444152221    1.383561089932    0.000000000000
 H   -6.178366279673    1.297924396648    0.000000000000
 C   -4.561023968116    2.711396933578    0.000000000000
 H   -3.939052901343    2.846305907610   -0.895118102221
 H   -3.939052901343    2.846305907610    0.895118102221
 H   -5.361344568056    3.458923959318    0.000000000000
