25

 C    5.025866502221    1.065404814020    0.000000000000
 H    4.315066502221    1.898044814020    0.000000000000
 H    5.666946502221    1.135944814020    0.890740000000
 H    5.666946502221    1.135944814020   -0.890740000000
 C    4.268536502221   -0.241885185980    0.000000000000
 O    3.014336502221   -0.294155185980    0.000000000000
 N    5.003446502221   -1.367365185980    0.000000000000
 H    6.012366502221   -1.281725185980    0.000000000000
 C    4.395026502221   -2.695195185980    0.000000000000
 H    3.773056502221   -2.830105185980    0.895110000000
 H    3.773056502221   -2.830105185980   -0.895110000000
 H    5.195346502221   -3.442725185980    0.000000000000
NA    0.886746502221   -0.086535185980    0.000000000000
 O   -3.293397419116    0.321382448972    0.000000000000
 C   -4.547599021328    0.269120367992    0.000000000000
 C   -5.304929365743   -1.038165983780    0.000000000000
 H   -4.594133042526   -1.870806326186    0.000000000000
 H   -5.946015893233   -1.108706125762   -0.890739148707
 H   -5.946015893233   -1.108706125762    0.890739148707
 N   -5.282502859980    1.394593877689    0.000000000000
 H   -6.291424987432    1.308957184406    0.000000000000
 C   -4.674082675874    2.722429721336    0.000000000000
 H   -4.052111609101    2.857338695367   -0.895118102221
 H   -4.052111609101    2.857338695367    0.895118102221
 H   -5.474403275814    3.469956747076    0.000000000000
