25

 C    5.197858031593    1.048621090968    0.000000000000
 H    4.487058031593    1.881261090968    0.000000000000
 H    5.838938031593    1.119161090968    0.890740000000
 H    5.838938031593    1.119161090968   -0.890740000000
 C    4.440528031593   -0.258668909032    0.000000000000
 O    3.186328031593   -0.310938909032    0.000000000000
 N    5.175438031593   -1.384148909032    0.000000000000
 H    6.184358031593   -1.298508909032    0.000000000000
 C    4.567018031593   -2.711978909032    0.000000000000
 H    3.945048031593   -2.846888909032    0.895110000000
 H    3.945048031593   -2.846888909032   -0.895110000000
 H    5.367338031593   -3.459508909032    0.000000000000
NA    1.058738031593   -0.103318909032    0.000000000000
 O   -3.519514834633    0.343448024487    0.000000000000
 C   -4.773716436846    0.291185943507    0.000000000000
 C   -5.531046781260   -1.016100408265    0.000000000000
 H   -4.820250458044   -1.848740750671    0.000000000000
 H   -6.172133308750   -1.086640550247   -0.890739148707
 H   -6.172133308750   -1.086640550247    0.890739148707
 N   -5.508620275497    1.416659453204    0.000000000000
 H   -6.517542402949    1.331022759920    0.000000000000
 C   -4.900200091392    2.744495296851    0.000000000000
 H   -4.278229024619    2.879404270882   -0.895118102221
 H   -4.278229024619    2.879404270882    0.895118102221
 H   -5.700520691332    3.492022322591    0.000000000000
