25

 C    5.240855913936    1.044425160205    0.000000000000
 H    4.530055913936    1.877065160205    0.000000000000
 H    5.881935913936    1.114965160205    0.890740000000
 H    5.881935913936    1.114965160205   -0.890740000000
 C    4.483525913936   -0.262864839795    0.000000000000
 O    3.229325913936   -0.315134839795    0.000000000000
 N    5.218435913936   -1.388344839795    0.000000000000
 H    6.227355913936   -1.302704839795    0.000000000000
 C    4.610015913936   -2.716174839795    0.000000000000
 H    3.988045913936   -2.851084839795    0.895110000000
 H    3.988045913936   -2.851084839795   -0.895110000000
 H    5.410335913936   -3.463704839795    0.000000000000
NA    1.101735913936   -0.107514839795    0.000000000000
 O   -3.576044188513    0.348964418366    0.000000000000
 C   -4.830245790725    0.296702337386    0.000000000000
 C   -5.587576135139   -1.010584014386    0.000000000000
 H   -4.876779811923   -1.843224356792    0.000000000000
 H   -6.228662662630   -1.081124156369   -0.890739148707
 H   -6.228662662630   -1.081124156369    0.890739148707
 N   -5.565149629376    1.422175847083    0.000000000000
 H   -6.574071756829    1.336539153799    0.000000000000
 C   -4.956729445271    2.750011690729    0.000000000000
 H   -4.334758378498    2.884920664761   -0.895118102221
 H   -4.334758378498    2.884920664761    0.895118102221
 H   -5.757050045211    3.497538716470    0.000000000000
