25

 C    5.369849560965    1.031837367916    0.000000000000
 H    4.659049560965    1.864477367916    0.000000000000
 H    6.010929560965    1.102377367916    0.890740000000
 H    6.010929560965    1.102377367916   -0.890740000000
 C    4.612519560965   -0.275452632084    0.000000000000
 O    3.358319560965   -0.327722632084    0.000000000000
 N    5.347429560965   -1.400932632084    0.000000000000
 H    6.356349560965   -1.315292632084    0.000000000000
 C    4.739009560965   -2.728762632084    0.000000000000
 H    4.117039560965   -2.863672632084    0.895110000000
 H    4.117039560965   -2.863672632084   -0.895110000000
 H    5.539329560965   -3.476292632084    0.000000000000
NA    1.230729560965   -0.120102632084    0.000000000000
 O   -3.745632250151    0.365513600002    0.000000000000
 C   -4.999833852363    0.313251519022    0.000000000000
 C   -5.757164196777   -0.994034832750    0.000000000000
 H   -5.046367873561   -1.826675175156    0.000000000000
 H   -6.398250724268   -1.064574974732   -0.890739148707
 H   -6.398250724268   -1.064574974732    0.890739148707
 N   -5.734737691014    1.438725028719    0.000000000000
 H   -6.743659818467    1.353088335435    0.000000000000
 C   -5.126317506909    2.766560872366    0.000000000000
 H   -4.504346440136    2.901469846397   -0.895118102221
 H   -4.504346440136    2.901469846397    0.895118102221
 H   -5.926638106849    3.514087898106    0.000000000000
