25

 C    5.412847443308    1.027641437153    0.000000000000
 H    4.702047443308    1.860281437153    0.000000000000
 H    6.053927443308    1.098181437153    0.890740000000
 H    6.053927443308    1.098181437153   -0.890740000000
 C    4.655517443308   -0.279648562847    0.000000000000
 O    3.401317443308   -0.331918562847    0.000000000000
 N    5.390427443308   -1.405128562847    0.000000000000
 H    6.399347443308   -1.319488562847    0.000000000000
 C    4.782007443308   -2.732958562847    0.000000000000
 H    4.160037443308   -2.867868562847    0.895110000000
 H    4.160037443308   -2.867868562847   -0.895110000000
 H    5.582327443308   -3.480488562847    0.000000000000
NA    1.273727443308   -0.124298562847    0.000000000000
 O   -3.802161604030    0.371029993881    0.000000000000
 C   -5.056363206242    0.318767912901    0.000000000000
 C   -5.813693550657   -0.988518438871    0.000000000000
 H   -5.102897227440   -1.821158781277    0.000000000000
 H   -6.454780078147   -1.059058580854   -0.890739148707
 H   -6.454780078147   -1.059058580854    0.890739148707
 N   -5.791267044893    1.444241422597    0.000000000000
 H   -6.800189172346    1.358604729314    0.000000000000
 C   -5.182846860788    2.772077266244    0.000000000000
 H   -4.560875794015    2.906986240276   -0.895118102221
 H   -4.560875794015    2.906986240276    0.895118102221
 H   -5.983167460728    3.519604291984    0.000000000000
