25

 C    5.670834737366    1.002465852575    0.000000000000
 H    4.960034737366    1.835105852575    0.000000000000
 H    6.311914737366    1.073005852575    0.890740000000
 H    6.311914737366    1.073005852575   -0.890740000000
 C    4.913504737366   -0.304824147425    0.000000000000
 O    3.659304737366   -0.357094147425    0.000000000000
 N    5.648414737366   -1.430304147425    0.000000000000
 H    6.657334737366   -1.344664147425    0.000000000000
 C    5.039994737366   -2.758134147425    0.000000000000
 H    4.418024737366   -2.893044147425    0.895110000000
 H    4.418024737366   -2.893044147425   -0.895110000000
 H    5.840314737366   -3.505664147425    0.000000000000
NA    1.531714737366   -0.149474147425    0.000000000000
 O   -4.141337727306    0.404128357153    0.000000000000
 C   -5.395539329518    0.351866276173    0.000000000000
 C   -6.152869673933   -0.955420075599    0.000000000000
 H   -5.442073350716   -1.788060418005    0.000000000000
 H   -6.793956201423   -1.025960217581   -0.890739148707
 H   -6.793956201423   -1.025960217581    0.890739148707
 N   -6.130443168169    1.477339785870    0.000000000000
 H   -7.139365295622    1.391703092586    0.000000000000
 C   -5.522022984064    2.805175629517    0.000000000000
 H   -4.900051917291    2.940084603548   -0.895118102221
 H   -4.900051917291    2.940084603548    0.895118102221
 H   -6.322343584004    3.552702655257    0.000000000000
