25

 C    5.842826266738    0.985682129523    0.000000000000
 H    5.132026266738    1.818322129523    0.000000000000
 H    6.483906266738    1.056222129523    0.890740000000
 H    6.483906266738    1.056222129523   -0.890740000000
 C    5.085496266738   -0.321607870477    0.000000000000
 O    3.831296266738   -0.373877870477    0.000000000000
 N    5.820406266738   -1.447087870477    0.000000000000
 H    6.829326266738   -1.361447870477    0.000000000000
 C    5.211986266738   -2.774917870477    0.000000000000
 H    4.590016266738   -2.909827870477    0.895110000000
 H    4.590016266738   -2.909827870477   -0.895110000000
 H    6.012306266738   -3.522447870477    0.000000000000
NA    1.703706266738   -0.166257870477    0.000000000000
 O   -4.367455142823    0.426193932668    0.000000000000
 C   -5.621656745035    0.373931851688    0.000000000000
 C   -6.378987089450   -0.933354500084    0.000000000000
 H   -5.668190766234   -1.765994842490    0.000000000000
 H   -7.020073616940   -1.003894642066   -0.890739148707
 H   -7.020073616940   -1.003894642066    0.890739148707
 N   -6.356560583687    1.499405361385    0.000000000000
 H   -7.365482711139    1.413768668101    0.000000000000
 C   -5.748140399581    2.827241205032    0.000000000000
 H   -5.126169332808    2.962150179063   -0.895118102221
 H   -5.126169332808    2.962150179063    0.895118102221
 H   -6.548460999521    3.574768230772    0.000000000000
