25

 C    6.057815678453    0.964702475708    0.000000000000
 H    5.347015678453    1.797342475708    0.000000000000
 H    6.698895678453    1.035242475708    0.890740000000
 H    6.698895678453    1.035242475708   -0.890740000000
 C    5.300485678453   -0.342587524292    0.000000000000
 O    4.046285678453   -0.394857524292    0.000000000000
 N    6.035395678453   -1.468067524292    0.000000000000
 H    7.044315678453   -1.382427524292    0.000000000000
 C    5.426975678453   -2.795897524292    0.000000000000
 H    4.805005678453   -2.930807524292    0.895110000000
 H    4.805005678453   -2.930807524292   -0.895110000000
 H    6.227295678453   -3.543427524292    0.000000000000
NA    1.918695678453   -0.187237524292    0.000000000000
 O   -4.650101912220    0.453775902062    0.000000000000
 C   -5.904303514432    0.401513821082    0.000000000000
 C   -6.661633858847   -0.905772530690    0.000000000000
 H   -5.950837535630   -1.738412873096    0.000000000000
 H   -7.302720386337   -0.976312672673   -0.890739148707
 H   -7.302720386337   -0.976312672673    0.890739148707
 N   -6.639207353083    1.526987330778    0.000000000000
 H   -7.648129480536    1.441350637495    0.000000000000
 C   -6.030787168978    2.854823174425    0.000000000000
 H   -5.408816102205    2.989732148457   -0.895118102221
 H   -5.408816102205    2.989732148457    0.895118102221
 H   -6.831107768918    3.602350200165    0.000000000000
