25

 C    6.358800854854    0.935330960367    0.000000000000
 H    5.648000854854    1.767970960367    0.000000000000
 H    6.999880854854    1.005870960367    0.890740000000
 H    6.999880854854    1.005870960367   -0.890740000000
 C    5.601470854854   -0.371959039633    0.000000000000
 O    4.347270854854   -0.424229039633    0.000000000000
 N    6.336380854854   -1.497439039633    0.000000000000
 H    7.345300854854   -1.411799039633    0.000000000000
 C    5.727960854854   -2.825269039633    0.000000000000
 H    5.105990854854   -2.960179039633    0.895110000000
 H    5.105990854854   -2.960179039633   -0.895110000000
 H    6.528280854854   -3.572799039633    0.000000000000
NA    2.219680854854   -0.216609039633    0.000000000000
 O   -5.045807389375    0.492390659213    0.000000000000
 C   -6.300008991587    0.440128578233    0.000000000000
 C   -7.057339336002   -0.867157773539    0.000000000000
 H   -6.346543012785   -1.699798115945    0.000000000000
 H   -7.698425863492   -0.937697915522   -0.890739148707
 H   -7.698425863492   -0.937697915522    0.890739148707
 N   -7.034912830238    1.565602087929    0.000000000000
 H   -8.043834957691    1.479965394646    0.000000000000
 C   -6.426492646133    2.893437931576    0.000000000000
 H   -5.804521579360    3.028346905608   -0.895118102221
 H   -5.804521579360    3.028346905608    0.895118102221
 H   -7.226813246073    3.640964957316    0.000000000000
