25

 C    6.487794501883    0.922743168078    0.000000000000
 H    5.776994501883    1.755383168078    0.000000000000
 H    7.128874501883    0.993283168078    0.890740000000
 H    7.128874501883    0.993283168078   -0.890740000000
 C    5.730464501883   -0.384546831922    0.000000000000
 O    4.476264501883   -0.436816831922    0.000000000000
 N    6.465374501883   -1.510026831922    0.000000000000
 H    7.474294501883   -1.424386831922    0.000000000000
 C    5.856954501883   -2.837856831922    0.000000000000
 H    5.234984501883   -2.972766831922    0.895110000000
 H    5.234984501883   -2.972766831922   -0.895110000000
 H    6.657274501883   -3.585386831922    0.000000000000
NA    2.348674501883   -0.229196831922    0.000000000000
 O   -5.215395451013    0.508939840849    0.000000000000
 C   -6.469597053225    0.456677759869    0.000000000000
 C   -7.226927397640   -0.850608591903    0.000000000000
 H   -6.516131074423   -1.683248934309    0.000000000000
 H   -7.868013925130   -0.921148733886   -0.890739148707
 H   -7.868013925130   -0.921148733886    0.890739148707
 N   -7.204500891876    1.582151269565    0.000000000000
 H   -8.213423019329    1.496514576282    0.000000000000
 C   -6.596080707771    2.909987113212    0.000000000000
 H   -5.974109640998    3.044896087244   -0.895118102221
 H   -5.974109640998    3.044896087244    0.895118102221
 H   -7.396401307711    3.657514138952    0.000000000000
