25

 C    6.530792384226    0.918547237315    0.000000000000
 H    5.819992384226    1.751187237315    0.000000000000
 H    7.171872384226    0.989087237315    0.890740000000
 H    7.171872384226    0.989087237315   -0.890740000000
 C    5.773462384226   -0.388742762685    0.000000000000
 O    4.519262384226   -0.441012762685    0.000000000000
 N    6.508372384226   -1.514222762685    0.000000000000
 H    7.517292384226   -1.428582762685    0.000000000000
 C    5.899952384226   -2.842052762685    0.000000000000
 H    5.277982384226   -2.976962762685    0.895110000000
 H    5.277982384226   -2.976962762685   -0.895110000000
 H    6.700272384226   -3.589582762685    0.000000000000
NA    2.391672384226   -0.233392762685    0.000000000000
 O   -5.271924804892    0.514456234728    0.000000000000
 C   -6.526126407105    0.462194153747    0.000000000000
 C   -7.283456751519   -0.845092198024    0.000000000000
 H   -6.572660428303   -1.677732540430    0.000000000000
 H   -7.924543279009   -0.915632340007   -0.890739148707
 H   -7.924543279009   -0.915632340007    0.890739148707
 N   -7.261030245756    1.587667663444    0.000000000000
 H   -8.269952373208    1.502030970161    0.000000000000
 C   -6.652610061651    2.915503507091    0.000000000000
 H   -6.030638994877    3.050412481123   -0.895118102221
 H   -6.030638994877    3.050412481123    0.895118102221
 H   -7.452930661591    3.663030532831    0.000000000000
