25

 C    6.616788148912    0.910155375789    0.000000000000
 H    5.905988148912    1.742795375789    0.000000000000
 H    7.257868148912    0.980695375789    0.890740000000
 H    7.257868148912    0.980695375789   -0.890740000000
 C    5.859458148912   -0.397134624211    0.000000000000
 O    4.605258148912   -0.449404624211    0.000000000000
 N    6.594368148912   -1.522614624211    0.000000000000
 H    7.603288148912   -1.436974624211    0.000000000000
 C    5.985948148912   -2.850444624211    0.000000000000
 H    5.363978148912   -2.985354624211    0.895110000000
 H    5.363978148912   -2.985354624211   -0.895110000000
 H    6.786268148912   -3.597974624211    0.000000000000
NA    2.477668148912   -0.241784624211    0.000000000000
 O   -5.384983512651    0.525489022485    0.000000000000
 C   -6.639185114863    0.473226941505    0.000000000000
 C   -7.396515459278   -0.834059410267    0.000000000000
 H   -6.685719136061   -1.666699752673    0.000000000000
 H   -8.037601986768   -0.904599552250   -0.890739148707
 H   -8.037601986768   -0.904599552250    0.890739148707
 N   -7.374088953514    1.598700451202    0.000000000000
 H   -8.383011080967    1.513063757918    0.000000000000
 C   -6.765668769409    2.926536294849    0.000000000000
 H   -6.143697702636    3.061445268880   -0.895118102221
 H   -6.143697702636    3.061445268880    0.895118102221
 H   -7.565989369349    3.674063320589    0.000000000000
