25

 C    6.702783913598    0.901763514263    0.000000000000
 H    5.991983913598    1.734403514263    0.000000000000
 H    7.343863913598    0.972303514263    0.890740000000
 H    7.343863913598    0.972303514263   -0.890740000000
 C    5.945453913598   -0.405526485737    0.000000000000
 O    4.691253913598   -0.457796485737    0.000000000000
 N    6.680363913598   -1.531006485737    0.000000000000
 H    7.689283913598   -1.445366485737    0.000000000000
 C    6.071943913598   -2.858836485737    0.000000000000
 H    5.449973913598   -2.993746485737    0.895110000000
 H    5.449973913598   -2.993746485737   -0.895110000000
 H    6.872263913598   -3.606366485737    0.000000000000
NA    2.563663913598   -0.250176485737    0.000000000000
 O   -5.498042220410    0.536521810242    0.000000000000
 C   -6.752243822622    0.484259729262    0.000000000000
 C   -7.509574167036   -0.823026622510    0.000000000000
 H   -6.798777843820   -1.655666964916    0.000000000000
 H   -8.150660694527   -0.893566764492   -0.890739148707
 H   -8.150660694527   -0.893566764492    0.890739148707
 N   -7.487147661273    1.609733238959    0.000000000000
 H   -8.496069788726    1.524096545676    0.000000000000
 C   -6.878727477168    2.937569082606    0.000000000000
 H   -6.256756410395    3.072478056637   -0.895118102221
 H   -6.256756410395    3.072478056637    0.895118102221
 H   -7.679048077108    3.685096108346    0.000000000000
