25

 C    6.745781795941    0.897567583500    0.000000000000
 H    6.034981795941    1.730207583500    0.000000000000
 H    7.386861795941    0.968107583500    0.890740000000
 H    7.386861795941    0.968107583500   -0.890740000000
 C    5.988451795941   -0.409722416500    0.000000000000
 O    4.734251795941   -0.461992416500    0.000000000000
 N    6.723361795941   -1.535202416500    0.000000000000
 H    7.732281795941   -1.449562416500    0.000000000000
 C    6.114941795941   -2.863032416500    0.000000000000
 H    5.492971795941   -2.997942416500    0.895110000000
 H    5.492971795941   -2.997942416500   -0.895110000000
 H    6.915261795941   -3.610562416500    0.000000000000
NA    2.606661795941   -0.254372416500    0.000000000000
 O   -5.554571574289    0.542038204121    0.000000000000
 C   -6.808773176501    0.489776123141    0.000000000000
 C   -7.566103520916   -0.817510228631    0.000000000000
 H   -6.855307197699   -1.650150571037    0.000000000000
 H   -8.207190048406   -0.888050370613   -0.890739148707
 H   -8.207190048406   -0.888050370613    0.890739148707
 N   -7.543677015152    1.615249632838    0.000000000000
 H   -8.552599142605    1.529612939554    0.000000000000
 C   -6.935256831047    2.943085476485    0.000000000000
 H   -6.313285764274    3.077994450516   -0.895118102221
 H   -6.313285764274    3.077994450516    0.895118102221
 H   -7.735577430987    3.690612502225    0.000000000000
