25

 C    6.788779678284    0.893371652737    0.000000000000
 H    6.077979678284    1.726011652737    0.000000000000
 H    7.429859678284    0.963911652737    0.890740000000
 H    7.429859678284    0.963911652737   -0.890740000000
 C    6.031449678284   -0.413918347263    0.000000000000
 O    4.777249678284   -0.466188347263    0.000000000000
 N    6.766359678284   -1.539398347263    0.000000000000
 H    7.775279678284   -1.453758347263    0.000000000000
 C    6.157939678284   -2.867228347263    0.000000000000
 H    5.535969678284   -3.002138347263    0.895110000000
 H    5.535969678284   -3.002138347263   -0.895110000000
 H    6.958259678284   -3.614758347263    0.000000000000
NA    2.649659678284   -0.258568347263    0.000000000000
 O   -5.611100928168    0.547554598000    0.000000000000
 C   -6.865302530380    0.495292517020    0.000000000000
 C   -7.622632874795   -0.811993834752    0.000000000000
 H   -6.911836551579   -1.644634177158    0.000000000000
 H   -8.263719402285   -0.882533976735   -0.890739148707
 H   -8.263719402285   -0.882533976735    0.890739148707
 N   -7.600206369032    1.620766026716    0.000000000000
 H   -8.609128496484    1.535129333433    0.000000000000
 C   -6.991786184927    2.948601870363    0.000000000000
 H   -6.369815118153    3.083510844395   -0.895118102221
 H   -6.369815118153    3.083510844395    0.895118102221
 H   -7.792106784866    3.696128896103    0.000000000000
