25

 C    7.003769089999    0.872391998922    0.000000000000
 H    6.292969089999    1.705031998922    0.000000000000
 H    7.644849089999    0.942931998922    0.890740000000
 H    7.644849089999    0.942931998922   -0.890740000000
 C    6.246439089999   -0.434898001078    0.000000000000
 O    4.992239089999   -0.487168001078    0.000000000000
 N    6.981349089999   -1.560378001078    0.000000000000
 H    7.990269089999   -1.474738001078    0.000000000000
 C    6.372929089999   -2.888208001078    0.000000000000
 H    5.750959089999   -3.023118001078    0.895110000000
 H    5.750959089999   -3.023118001078   -0.895110000000
 H    7.173249089999   -3.635738001078    0.000000000000
NA    2.864649089999   -0.279548001078    0.000000000000
 O   -5.893747697565    0.575136567394    0.000000000000
 C   -7.147949299777    0.522874486413    0.000000000000
 C   -7.905279644192   -0.784411865359    0.000000000000
 H   -7.194483320975   -1.617052207765    0.000000000000
 H   -8.546366171682   -0.854952007341   -0.890739148707
 H   -8.546366171682   -0.854952007341    0.890739148707
 N   -7.882853138428    1.648347996110    0.000000000000
 H   -8.891775265881    1.562711302827    0.000000000000
 C   -7.274432954323    2.976183839757    0.000000000000
 H   -6.652461887550    3.111092813788   -0.895118102221
 H   -6.652461887550    3.111092813788    0.895118102221
 H   -8.074753554263    3.723710865497    0.000000000000
