25

 C    7.046766972342    0.868196068159    0.000000000000
 H    6.335966972342    1.700836068159    0.000000000000
 H    7.687846972342    0.938736068159    0.890740000000
 H    7.687846972342    0.938736068159   -0.890740000000
 C    6.289436972342   -0.439093931841    0.000000000000
 O    5.035236972342   -0.491363931841    0.000000000000
 N    7.024346972342   -1.564573931841    0.000000000000
 H    8.033266972342   -1.478933931841    0.000000000000
 C    6.415926972342   -2.892403931841    0.000000000000
 H    5.793956972342   -3.027313931841    0.895110000000
 H    5.793956972342   -3.027313931841   -0.895110000000
 H    7.216246972342   -3.639933931841    0.000000000000
NA    2.907646972342   -0.283743931841    0.000000000000
 O   -5.950277051444    0.580652961272    0.000000000000
 C   -7.204478653656    0.528390880292    0.000000000000
 C   -7.961808998071   -0.778895471480    0.000000000000
 H   -7.251012674854   -1.611535813886    0.000000000000
 H   -8.602895525561   -0.849435613462   -0.890739148707
 H   -8.602895525561   -0.849435613462    0.890739148707
 N   -7.939382492308    1.653864389989    0.000000000000
 H   -8.948304619760    1.568227696705    0.000000000000
 C   -7.330962308202    2.981700233636    0.000000000000
 H   -6.708991241429    3.116609207667   -0.895118102221
 H   -6.708991241429    3.116609207667    0.895118102221
 H   -8.131282908142    3.729227259376    0.000000000000
