25

 C    7.261756384057    0.847216414344    0.000000000000
 H    6.550956384057    1.679856414344    0.000000000000
 H    7.902836384057    0.917756414344    0.890740000000
 H    7.902836384057    0.917756414344   -0.890740000000
 C    6.504426384057   -0.460073585656    0.000000000000
 O    5.250226384057   -0.512343585656    0.000000000000
 N    7.239336384057   -1.585553585656    0.000000000000
 H    8.248256384057   -1.499913585656    0.000000000000
 C    6.630916384057   -2.913383585656    0.000000000000
 H    6.008946384057   -3.048293585656    0.895110000000
 H    6.008946384057   -3.048293585656   -0.895110000000
 H    7.431236384057   -3.660913585656    0.000000000000
NA    3.122636384057   -0.304723585656    0.000000000000
 O   -6.232923820841    0.608234930666    0.000000000000
 C   -7.487125423053    0.555972849686    0.000000000000
 C   -8.244455767467   -0.751313502086    0.000000000000
 H   -7.533659444251   -1.583953844492    0.000000000000
 H   -8.885542294958   -0.821853644069   -0.890739148707
 H   -8.885542294958   -0.821853644069    0.890739148707
 N   -8.222029261704    1.681446359382    0.000000000000
 H   -9.230951389157    1.595809666099    0.000000000000
 C   -7.613609077599    3.009282203029    0.000000000000
 H   -6.991638010826    3.144191177061   -0.895118102221
 H   -6.991638010826    3.144191177061    0.895118102221
 H   -8.413929677539    3.756809228769    0.000000000000
