25

 C    7.304754266400    0.843020483581    0.000000000000
 H    6.593954266400    1.675660483581    0.000000000000
 H    7.945834266400    0.913560483581    0.890740000000
 H    7.945834266400    0.913560483581   -0.890740000000
 C    6.547424266400   -0.464269516419    0.000000000000
 O    5.293224266400   -0.516539516419    0.000000000000
 N    7.282334266400   -1.589749516419    0.000000000000
 H    8.291254266400   -1.504109516419    0.000000000000
 C    6.673914266400   -2.917579516419    0.000000000000
 H    6.051944266400   -3.052489516419    0.895110000000
 H    6.051944266400   -3.052489516419   -0.895110000000
 H    7.474234266400   -3.665109516419    0.000000000000
NA    3.165634266400   -0.308919516419    0.000000000000
 O   -6.289453174720    0.613751324545    0.000000000000
 C   -7.543654776932    0.561489243564    0.000000000000
 C   -8.300985121347   -0.745797108207    0.000000000000
 H   -7.590188798130   -1.578437450614    0.000000000000
 H   -8.942071648837   -0.816337250190   -0.890739148707
 H   -8.942071648837   -0.816337250190    0.890739148707
 N   -8.278558615583    1.686962753261    0.000000000000
 H   -9.287480743036    1.601326059978    0.000000000000
 C   -7.670138431478    3.014798596908    0.000000000000
 H   -7.048167364705    3.149707570940   -0.895118102221
 H   -7.048167364705    3.149707570940    0.895118102221
 H   -8.470459031418    3.762325622648    0.000000000000
