25

 C    7.476745795772    0.826236760529    0.000000000000
 H    6.765945795772    1.658876760529    0.000000000000
 H    8.117825795772    0.896776760529    0.890740000000
 H    8.117825795772    0.896776760529   -0.890740000000
 C    6.719415795772   -0.481053239471    0.000000000000
 O    5.465215795772   -0.533323239471    0.000000000000
 N    7.454325795772   -1.606533239471    0.000000000000
 H    8.463245795772   -1.520893239471    0.000000000000
 C    6.845905795772   -2.934363239471    0.000000000000
 H    6.223935795772   -3.069273239471    0.895110000000
 H    6.223935795772   -3.069273239471   -0.895110000000
 H    7.646225795772   -3.681893239471    0.000000000000
NA    3.337625795772   -0.325703239471    0.000000000000
 O   -6.515570590237    0.635816900059    0.000000000000
 C   -7.769772192450    0.583554819079    0.000000000000
 C   -8.527102536864   -0.723731532693    0.000000000000
 H   -7.816306213648   -1.556371875099    0.000000000000
 H   -9.168189064354   -0.794271674675   -0.890739148707
 H   -9.168189064354   -0.794271674675    0.890739148707
 N   -8.504676031101    1.709028328776    0.000000000000
 H   -9.513598158553    1.623391635493    0.000000000000
 C   -7.896255846996    3.036864172423    0.000000000000
 H   -7.274284780222    3.171773146454   -0.895118102221
 H   -7.274284780222    3.171773146454    0.895118102221
 H   -8.696576446936    3.784391198163    0.000000000000
