33

 N    0.215059484003   -4.137585090497    0.094306935964
 C    1.431589484003   -3.496445090497    0.097366935964
 N    2.659079484003   -4.078875090497    0.165906935964
 C    3.634619484003   -3.191215090497    0.112536935964
 N    3.428119484003   -1.825855090497    0.017016935964
 H    4.229959484003   -1.206455090497   -0.087033064036
 N    4.939969484003   -3.612205090497    0.078776935964
 H    5.656179484003   -3.003545090497    0.457136935964
 H    5.060599484003   -4.597455090497    0.288546935964
 C    2.180369484003   -1.179295090497   -0.053433064036
 O    2.108489484003    0.053974909503   -0.175413064036
 C    1.111689484003   -2.135305090497    0.018116935964
 N   -0.256270515997   -1.939875090497   -0.050503064036
 C   -0.762080515997   -3.173055090497    0.004196935964
 H   -1.820810515997   -3.415505090497   -0.019673064036
 H    0.076899484003   -5.142515090497    0.140666935964
 K   -0.369810515997    0.710324909503   -0.006023064036
 C   -1.016294789926    1.952076542590   -0.016557070362
 N    0.351662474448    1.756641504861    0.052062689002
 C    0.857474711674    2.989826520258   -0.002630807615
 H    1.916207065210    3.232274492571    0.021238509468
 N   -0.119661282580    3.954359102967   -0.092744891564
 H    0.018500541666    4.959287248113   -0.139103569444
 C   -1.336189195370    3.313219133393   -0.095810249150
 C   -2.084979719154    0.996058221736    0.054987004374
 O   -2.013099772279   -0.237201868565    0.176960249425
 N   -3.332724970369    1.642619795075   -0.015468984384
 H   -4.134565226034    1.023224583069    0.088576713942
 C   -3.539224462378    3.007982256384   -0.110995238095
 N   -2.563692780632    3.895644196541   -0.164352695928
 N   -4.844570967171    3.428971892925   -0.077232695971
 H   -5.560788384039    2.820311041494   -0.455596388481
 H   -4.965207941149    4.414230311176   -0.287003955621
