33

 N    0.337765599517   -4.373276081717    0.096306345771
 C    1.554295599517   -3.732136081717    0.099366345771
 N    2.781785599517   -4.314566081717    0.167906345771
 C    3.757325599517   -3.426906081717    0.114536345771
 N    3.550825599517   -2.061546081717    0.019016345771
 H    4.352665599517   -1.442146081717   -0.085033654229
 N    5.062675599517   -3.847896081717    0.080776345771
 H    5.778885599517   -3.239236081717    0.459136345771
 H    5.183305599517   -4.833146081717    0.290546345771
 C    2.303075599517   -1.414986081717   -0.051433654229
 O    2.231195599517   -0.181716081717   -0.173413654229
 C    1.234395599517   -2.370996081717    0.020116345771
 N   -0.133564400483   -2.175566081717   -0.048503654229
 C   -0.639374400483   -3.408746081717    0.006196345771
 H   -1.698104400483   -3.651196081717   -0.017673654229
 H    0.199605599517   -5.378206081717    0.142666345771
 K   -0.247104400483    0.474633918283   -0.004023654229
 C   -1.170653363237    2.248564822693   -0.019072234696
 N    0.197303901136    2.053129784964    0.049547524669
 C    0.703116138363    3.286314800361   -0.005145971948
 H    1.761848491899    3.528762772674    0.018723345135
 N   -0.274019855891    4.250847383070   -0.095260055897
 H   -0.135858031645    5.255775528216   -0.141618733777
 C   -1.490547768681    3.609707413496   -0.098325413484
 C   -2.239338292466    1.292546501839    0.052471840040
 O   -2.167458345590    0.059286411538    0.174445085092
 N   -3.487083543681    1.939108075178   -0.017984148718
 H   -4.288923799345    1.319712863172    0.086061549609
 C   -3.693583035690    3.304470536487   -0.113510402428
 N   -2.718051353944    4.192132476644   -0.166867860261
 N   -4.998929540482    3.725460173028   -0.079747860305
 H   -5.715146957350    3.116799321597   -0.458111552814
 H   -5.119566514460    4.710718591279   -0.289519119954
