33

 N    0.358216618770   -4.412557913587    0.096639580738
 C    1.574746618770   -3.771417913587    0.099699580738
 N    2.802236618770   -4.353847913587    0.168239580738
 C    3.777776618770   -3.466187913587    0.114869580738
 N    3.571276618770   -2.100827913587    0.019349580738
 H    4.373116618770   -1.481427913587   -0.084700419262
 N    5.083126618770   -3.887177913587    0.081109580738
 H    5.799336618770   -3.278517913587    0.459469580738
 H    5.203756618770   -4.872427913587    0.290879580738
 C    2.323526618770   -1.454267913587   -0.051100419262
 O    2.251646618770   -0.220997913587   -0.173080419262
 C    1.254846618770   -2.410277913587    0.020449580738
 N   -0.113113381230   -2.214847913587   -0.048170419262
 C   -0.618923381230   -3.448027913587    0.006529580738
 H   -1.677653381230   -3.690477913587   -0.017340419262
 H    0.220056618770   -5.417487913587    0.142999580738
 K   -0.226653381230    0.435352086413   -0.003690419262
 C   -1.196379792122    2.297979536044   -0.019491428751
 N    0.171577472251    2.102544498315    0.049128330614
 C    0.677389709478    3.335729513712   -0.005565166003
 H    1.736122063013    3.578177486025    0.018304151079
 N   -0.299746284776    4.300262096421   -0.095679249953
 H   -0.161584460530    5.305190241567   -0.142037927833
 C   -1.516274197567    3.659122126847   -0.098744607539
 C   -2.265064721351    1.341961215189    0.052052645985
 O   -2.193184774476    0.108701124888    0.174025891036
 N   -3.512809972566    1.988522788528   -0.018403342773
 H   -4.314650228231    1.369127576523    0.085642355553
 C   -3.719309464575    3.353885249837   -0.113929596483
 N   -2.743777782829    4.241547189994   -0.167287054317
 N   -5.024655969367    3.774874886379   -0.080167054360
 H   -5.740873386235    3.166214034947   -0.458530746870
 H   -5.145292943346    4.760133304630   -0.289938314010
