33

 N    0.460471715032   -4.608967072937    0.098305755577
 C    1.677001715032   -3.967827072937    0.101365755577
 N    2.904491715032   -4.550257072937    0.169905755577
 C    3.880031715032   -3.662597072937    0.116535755577
 N    3.673531715032   -2.297237072937    0.021015755577
 H    4.475371715032   -1.677837072937   -0.083034244423
 N    5.185381715032   -4.083587072937    0.082775755577
 H    5.901591715032   -3.474927072937    0.461135755577
 H    5.306011715032   -5.068837072937    0.292545755577
 C    2.425781715032   -1.650677072937   -0.049434244423
 O    2.353901715032   -0.417407072937   -0.171414244423
 C    1.357101715032   -2.606687072937    0.022115755577
 N   -0.010858284968   -2.411257072937   -0.046504244423
 C   -0.516668284968   -3.644437072937    0.008195755577
 H   -1.575398284968   -3.886887072937   -0.015674244423
 H    0.322311715032   -5.613897072937    0.144665755577
 K   -0.124398284968    0.238942927063   -0.002024244423
 C   -1.325011936549    2.545053102796   -0.021587399029
 N    0.042945327825    2.349618065067    0.047032360336
 C    0.548757565051    3.582803080464   -0.007661136281
 H    1.607489918587    3.825251052777    0.016208180802
 N   -0.428378429203    4.547335663173   -0.097775220231
 H   -0.290216604957    5.552263808319   -0.144133898111
 C   -1.644906341993    3.906195693599   -0.100840577817
 C   -2.393696865777    1.589034781942    0.049956675707
 O   -2.321816918902    0.355774691641    0.171929920758
 N   -3.641442116992    2.235596355281   -0.020499313051
 H   -4.443282372657    1.616201143275    0.083546385276
 C   -3.847941609001    3.600958816590   -0.116025566761
 N   -2.872409927255    4.488620756747   -0.169383024594
 N   -5.153288113794    4.021948453131   -0.082263024638
 H   -5.869505530662    3.413287601700   -0.460626717148
 H   -5.273925087772    5.007206871382   -0.292034284288
