33

 N    0.501373753537   -4.687530736677    0.098972225513
 C    1.717903753537   -4.046390736677    0.102032225513
 N    2.945393753537   -4.628820736677    0.170572225513
 C    3.920933753537   -3.741160736677    0.117202225513
 N    3.714433753537   -2.375800736677    0.021682225513
 H    4.516273753537   -1.756400736677   -0.082367774487
 N    5.226283753537   -4.162150736677    0.083442225513
 H    5.942493753537   -3.553490736677    0.461802225513
 H    5.346913753537   -5.147400736677    0.293212225513
 C    2.466683753537   -1.729240736677   -0.048767774487
 O    2.394803753537   -0.495970736677   -0.170747774487
 C    1.398003753537   -2.685250736677    0.022782225513
 N    0.030043753537   -2.489820736677   -0.045837774487
 C   -0.475766246463   -3.723000736677    0.008862225513
 H   -1.534496246463   -3.965450736677   -0.015007774487
 H    0.363213753537   -5.692460736677    0.145332225513
 K   -0.083496246463    0.160379263323   -0.001357774487
 C   -1.376464794319    2.643882529497   -0.022425787140
 N   -0.008507529946    2.448447491768    0.046193972225
 C    0.497304707281    3.681632507165   -0.008499524392
 H    1.556037060817    3.924080479478    0.015369792691
 N   -0.479831286973    4.646165089874   -0.098613608342
 H   -0.341669462727    5.651093235020   -0.144972286222
 C   -1.696359199763    4.005025120300   -0.101678965928
 C   -2.445149723548    1.687864208643    0.049118287596
 O   -2.373269776672    0.454604118342    0.171091532647
 N   -3.692894974763    2.334425781982   -0.021337701162
 H   -4.494735230427    1.715030569976    0.082707997165
 C   -3.899394466772    3.699788243291   -0.116863954872
 N   -2.923862785026    4.587450183448   -0.170221412705
 N   -5.204740971564    4.120777879832   -0.083101412749
 H   -5.920958388432    3.512117028401   -0.461465105259
 H   -5.325377945543    5.106036298083   -0.292872672399
