33

 N    0.542275792042   -4.766094400417    0.099638695448
 C    1.758805792042   -4.124954400417    0.102698695448
 N    2.986295792042   -4.707384400417    0.171238695448
 C    3.961835792042   -3.819724400417    0.117868695448
 N    3.755335792042   -2.454364400417    0.022348695448
 H    4.557175792042   -1.834964400417   -0.081701304552
 N    5.267185792042   -4.240714400417    0.084108695448
 H    5.983395792042   -3.632054400417    0.462468695448
 H    5.387815792042   -5.225964400417    0.293878695448
 C    2.507585792042   -1.807804400417   -0.048101304552
 O    2.435705792042   -0.574534400417   -0.170081304552
 C    1.438905792042   -2.763814400417    0.023448695448
 N    0.070945792042   -2.568384400417   -0.045171304552
 C   -0.434864207958   -3.801564400417    0.009528695448
 H   -1.493594207958   -4.044014400417   -0.014341304552
 H    0.404115792042   -5.771024400417    0.145998695448
 K   -0.042594207958    0.081815599583   -0.000691304552
 C   -1.427917652090    2.742711956198   -0.023264175251
 N   -0.059960387716    2.547276918469    0.045355584114
 C    0.445851849510    3.780461933866   -0.009337912503
 H    1.504584203046    4.022909906179    0.014531404580
 N   -0.531284144744    4.744994516575   -0.099451996453
 H   -0.393122320498    5.749922661721   -0.145810674333
 C   -1.747812057534    4.103854547001   -0.102517354039
 C   -2.496602581318    1.786693635344    0.048279899485
 O   -2.424722634443    0.553433545043    0.170253144536
 N   -3.744347832533    2.433255208683   -0.022176089273
 H   -4.546188088198    1.813859996677    0.081869609053
 C   -3.950847324542    3.798617669992   -0.117702342983
 N   -2.975315642796    4.686279610149   -0.171059800816
 N   -5.256193829335    4.219607306533   -0.083939800860
 H   -5.972411246203    3.610946455102   -0.462303493370
 H   -5.376830803313    5.204865724784   -0.293711060510
