33

 N    0.603628849800   -4.883939896027    0.100638400352
 C    1.820158849800   -4.242799896027    0.103698400352
 N    3.047648849800   -4.825229896027    0.172238400352
 C    4.023188849800   -3.937569896027    0.118868400352
 N    3.816688849800   -2.572209896027    0.023348400352
 H    4.618528849800   -1.952809896027   -0.080701599648
 N    5.328538849800   -4.358559896027    0.085108400352
 H    6.044748849800   -3.749899896027    0.463468400352
 H    5.449168849800   -5.343809896027    0.294878400352
 C    2.568938849800   -1.925649896027   -0.047101599648
 O    2.497058849800   -0.692379896027   -0.169081599648
 C    1.500258849800   -2.881659896027    0.024448400352
 N    0.132298849800   -2.686229896027   -0.044171599648
 C   -0.373511150200   -3.919409896027    0.010528400352
 H   -1.432241150200   -4.161859896027   -0.013341599648
 H    0.465468849800   -5.888869896027    0.146998400352
 K    0.018758849800   -0.036029896027    0.000308400352
 C   -1.505096938746    2.890956096250   -0.024521757418
 N   -0.137139674372    2.695521058521    0.044098001947
 C    0.368672562855    3.928706073918   -0.010595494670
 H    1.427404916390    4.171154046230    0.013273822413
 N   -0.608463431400    4.893238656627   -0.100709578620
 H   -0.470301607154    5.898166801773   -0.147068256500
 C   -1.824991344190    4.252098687053   -0.103774936206
 C   -2.573781867974    1.934937775395    0.047022317318
 O   -2.501901921099    0.701677685094    0.168995562370
 N   -3.821527119189    2.581499348734   -0.023433671440
 H   -4.623367374854    1.962104136728    0.080612026887
 C   -4.028026611198    3.946861810043   -0.118959925150
 N   -3.052494929452    4.834523750200   -0.172317382983
 N   -5.333373115990    4.367851446585   -0.085197383027
 H   -6.049590532859    3.759190595153   -0.463561075536
 H   -5.454010089969    5.353109864836   -0.294968642677
