33

 N    0.644530888304   -4.962503559767    0.101304870287
 C    1.861060888304   -4.321363559767    0.104364870287
 N    3.088550888304   -4.903793559767    0.172904870287
 C    4.064090888304   -4.016133559767    0.119534870287
 N    3.857590888304   -2.650773559767    0.024014870287
 H    4.659430888304   -2.031373559767   -0.080035129713
 N    5.369440888304   -4.437123559767    0.085774870287
 H    6.085650888304   -3.828463559767    0.464134870287
 H    5.490070888304   -5.422373559767    0.295544870287
 C    2.609840888304   -2.004213559767   -0.046435129713
 O    2.537960888304   -0.770943559767   -0.168415129713
 C    1.541160888304   -2.960223559767    0.025114870287
 N    0.173200888304   -2.764793559767   -0.043505129713
 C   -0.332609111696   -3.997973559767    0.011194870287
 H   -1.391339111696   -4.240423559767   -0.012675129713
 H    0.506370888304   -5.967433559767    0.147664870287
 K    0.059660888304   -0.114593559767    0.000974870287
 C   -1.556549796516    2.989785522951   -0.025360145529
 N   -0.188592532142    2.794350485222    0.043259613836
 C    0.317219705084    4.027535500619   -0.011433882781
 H    1.375952058620    4.269983472931    0.012435434302
 N   -0.659916289170    4.992068083328   -0.101547966731
 H   -0.521754464924    5.996996228474   -0.147906644611
 C   -1.876444201960    4.350928113754   -0.104613324317
 C   -2.625234725745    2.033767202096    0.046183929207
 O   -2.553354778869    0.800507111795    0.168157174258
 N   -3.872979976960    2.680328775435   -0.024272059551
 H   -4.674820232624    2.060933563429    0.079773638776
 C   -4.079479468969    4.045691236744   -0.119798313261
 N   -3.103947787223    4.933353176901   -0.173155771094
 N   -5.384825973761    4.466680873286   -0.086035771138
 H   -6.101043390629    3.858020021854   -0.464399463648
 H   -5.505462947739    5.451939291537   -0.295807030788
