33

 N    0.726334965314   -5.119630887247    0.102637810158
 C    1.942864965314   -4.478490887247    0.105697810158
 N    3.170354965314   -5.060920887247    0.174237810158
 C    4.145894965314   -4.173260887247    0.120867810158
 N    3.939394965314   -2.807900887247    0.025347810158
 H    4.741234965314   -2.188500887247   -0.078702189842
 N    5.451244965314   -4.594250887247    0.087107810158
 H    6.167454965314   -3.985590887247    0.465467810158
 H    5.571874965314   -5.579500887247    0.296877810158
 C    2.691644965314   -2.161340887247   -0.045102189842
 O    2.619764965314   -0.928070887247   -0.167082189842
 C    1.622964965314   -3.117350887247    0.026447810158
 N    0.255004965314   -2.921920887247   -0.042172189842
 C   -0.250805034686   -4.155100887247    0.012527810158
 H   -1.309535034686   -4.397550887247   -0.011342189842
 H    0.588174965314   -6.124560887247    0.148997810158
 K    0.141464965314   -0.271720887247    0.002307810158
 C   -1.659455512057    3.187444376353   -0.027036921751
 N   -0.291498247684    2.992009338624    0.041582837614
 C    0.214313989543    4.225194354021   -0.013110659003
 H    1.273046343079    4.467642326333    0.010758658080
 N   -0.762822004711    5.189726936730   -0.103224742953
 H   -0.624660180465    6.194655081875   -0.149583420833
 C   -1.979349917501    4.548586967156   -0.106290100539
 C   -2.728140441286    2.231426055498    0.044507152985
 O   -2.656260494410    0.998165965197    0.166480398036
 N   -3.975885692501    2.877987628837   -0.025948835773
 H   -4.777725948165    2.258592416831    0.078096862554
 C   -4.182385184510    4.243350090146   -0.121475089483
 N   -3.206853502764    5.131012030303   -0.174832547316
 N   -5.487731689302    4.664339726688   -0.087712547360
 H   -6.203949106170    4.055678875256   -0.466076239870
 H   -5.608368663280    5.649598144939   -0.297483807010
