33

 N    0.767237003819   -5.198194550987    0.103304280094
 C    1.983767003819   -4.557054550987    0.106364280094
 N    3.211257003819   -5.139484550987    0.174904280094
 C    4.186797003819   -4.251824550987    0.121534280094
 N    3.980297003819   -2.886464550987    0.026014280094
 H    4.782137003819   -2.267064550987   -0.078035719906
 N    5.492147003819   -4.672814550987    0.087774280094
 H    6.208357003819   -4.064154550987    0.466134280094
 H    5.612777003819   -5.658064550987    0.297544280094
 C    2.732547003819   -2.239904550987   -0.044435719906
 O    2.660667003819   -1.006634550987   -0.166415719906
 C    1.663867003819   -3.195914550987    0.027114280094
 N    0.295907003819   -3.000484550987   -0.041505719906
 C   -0.209902996181   -4.233664550987    0.013194280094
 H   -1.268632996181   -4.476114550987   -0.010675719906
 H    0.629077003819   -6.203124550987    0.149664280094
 K    0.182367003819   -0.350284550987    0.002974280094
 C   -1.710908369828    3.286273803054   -0.027875309862
 N   -0.342951105454    3.090838765325    0.040744449503
 C    0.162861131772    4.324023780722   -0.013949047114
 H    1.221593485308    4.566471753034    0.009920269969
 N   -0.814274862482    5.288556363431   -0.104063131064
 H   -0.676113038236    6.293484508576   -0.150421808944
 C   -2.030802775272    4.647416393857   -0.107128488650
 C   -2.779593299056    2.330255482199    0.043668764874
 O   -2.707713352181    1.096995391898    0.165642009925
 N   -4.027338550271    2.976817055538   -0.026787223884
 H   -4.829178805936    2.357421843532    0.077258474442
 C   -4.233838042280    4.342179516847   -0.122313477594
 N   -3.258306360534    5.229841457004   -0.175670935427
 N   -5.539184547073    4.763169153389   -0.088550935471
 H   -6.255401963941    4.154508301957   -0.466914627981
 H   -5.659821521051    5.748427571640   -0.298322195121
