33

 N    0.808139042324   -5.276758214727    0.103970750029
 C    2.024669042324   -4.635618214727    0.107030750029
 N    3.252159042324   -5.218048214727    0.175570750029
 C    4.227699042324   -4.330388214727    0.122200750029
 N    4.021199042324   -2.965028214727    0.026680750029
 H    4.823039042324   -2.345628214727   -0.077369249971
 N    5.533049042324   -4.751378214727    0.088440750029
 H    6.249259042324   -4.142718214727    0.466800750029
 H    5.653679042324   -5.736628214727    0.298210750029
 C    2.773449042324   -2.318468214727   -0.043769249971
 O    2.701569042324   -1.085198214727   -0.165749249971
 C    1.704769042324   -3.274478214727    0.027780750029
 N    0.336809042324   -3.079048214727   -0.040839249971
 C   -0.169000957676   -4.312228214727    0.013860750029
 H   -1.227730957676   -4.554678214727   -0.010009249971
 H    0.669979042324   -6.281688214727    0.150330750029
 K    0.223269042324   -0.428848214727    0.003640750029
 C   -1.762361227598    3.385103229755   -0.028713697973
 N   -0.394403963225    3.189668192026    0.039906061392
 C    0.111408274002    4.422853207423   -0.014787435225
 H    1.170140627538    4.665301179735    0.009081881857
 N   -0.865727720252    5.387385790132   -0.104901519175
 H   -0.727565896006    6.392313935277   -0.151260197055
 C   -2.082255633042    4.746245820558   -0.107966876761
 C   -2.831046156827    2.429084908900    0.042830376763
 O   -2.759166209951    1.195824818599    0.164803621814
 N   -4.078791408042    3.075646482239   -0.027625611995
 H   -4.880631663706    2.456251270233    0.076420086331
 C   -4.285290900051    4.441008943548   -0.123151865705
 N   -3.309759218305    5.328670883705   -0.176509323539
 N   -5.590637404843    4.861998580090   -0.089389323582
 H   -6.306854821711    4.253337728658   -0.467753016092
 H   -5.711274378821    5.847256998341   -0.299160583232
