33

 N    0.849041080829   -5.355321878467    0.104637219965
 C    2.065571080829   -4.714181878467    0.107697219965
 N    3.293061080829   -5.296611878467    0.176237219965
 C    4.268601080829   -4.408951878467    0.122867219965
 N    4.062101080829   -3.043591878467    0.027347219965
 H    4.863941080829   -2.424191878467   -0.076702780035
 N    5.573951080829   -4.829941878467    0.089107219965
 H    6.290161080829   -4.221281878467    0.467467219965
 H    5.694581080829   -5.815191878467    0.298877219965
 C    2.814351080829   -2.397031878467   -0.043102780035
 O    2.742471080829   -1.163761878467   -0.165082780035
 C    1.745671080829   -3.353041878467    0.028447219965
 N    0.377711080829   -3.157611878467   -0.040172780035
 C   -0.128098919171   -4.390791878467    0.014527219965
 H   -1.186828919171   -4.633241878467   -0.009342780035
 H    0.710881080829   -6.360251878467    0.150997219965
 K    0.264171080829   -0.507411878467    0.004307219965
 C   -1.813814085369    3.483932656456   -0.029552086084
 N   -0.445856820995    3.288497618727    0.039067673281
 C    0.059955416231    4.521682634124   -0.015625823336
 H    1.118687769767    4.764130606436    0.008243493746
 N   -0.917180578023    5.486215216833   -0.105739907286
 H   -0.779018753777    6.491143361978   -0.152098585166
 C   -2.133708490813    4.845075247259   -0.108805264872
 C   -2.882499014597    2.527914335601    0.041991988652
 O   -2.810619067722    1.294654245300    0.163965233703
 N   -4.130244265812    3.174475908940   -0.028464000106
 H   -4.932084521477    2.555080696934    0.075581698220
 C   -4.336743757821    4.539838370249   -0.123990253817
 N   -3.361212076075    5.427500310406   -0.177347711650
 N   -5.642090262614    4.960828006791   -0.090227711693
 H   -6.358307679482    4.352167155359   -0.468591404203
 H   -5.762727236592    5.946086425042   -0.299998971343
