33

 N    0.951296177092   -5.551731037817    0.106303394804
 C    2.167826177092   -4.910591037817    0.109363394804
 N    3.395316177092   -5.493021037817    0.177903394804
 C    4.370856177092   -4.605361037817    0.124533394804
 N    4.164356177092   -3.240001037817    0.029013394804
 H    4.966196177092   -2.620601037817   -0.075036605196
 N    5.676206177092   -5.026351037817    0.090773394804
 H    6.392416177092   -4.417691037817    0.469133394804
 H    5.796836177092   -6.011601037817    0.300543394804
 C    2.916606177092   -2.593441037817   -0.041436605196
 O    2.844726177092   -1.360171037817   -0.163416605196
 C    1.847926177092   -3.549451037817    0.030113394804
 N    0.479966177092   -3.354021037817   -0.038506605196
 C   -0.025843822908   -4.587201037817    0.016193394804
 H   -1.084573822908   -4.829651037817   -0.007676605196
 H    0.813136177092   -6.556661037817    0.152663394804
 K    0.366426177092   -0.703821037817    0.005973394804
 C   -1.942446229795    3.731006223208   -0.031648056362
 N   -0.574488965421    3.535571185479    0.036971703003
 C   -0.068676728195    4.768756200876   -0.017721793614
 H    0.990055625341    5.011204173189    0.006147523469
 N   -1.045812722449    5.733288783585   -0.107835877564
 H   -0.907650898203    6.738216928731   -0.154194555444
 C   -2.262340635239    5.092148814011   -0.110901235150
 C   -3.011131159023    2.774987902353    0.039896018374
 O   -2.939251212148    1.541727812053    0.161869263425
 N   -4.258876410238    3.421549475692   -0.030559970384
 H   -5.060716665903    2.802154263687    0.073485727943
 C   -4.465375902247    4.786911937002   -0.126086224094
 N   -3.489844220501    5.674573877159   -0.179443681927
 N   -5.770722407040    5.207901573543   -0.092323681971
 H   -6.486939823908    4.599240722112   -0.470687374481
 H   -5.891359381018    6.193159991794   -0.302094941621
