33

 N    0.971747196344   -5.591012869687    0.106636629772
 C    2.188277196344   -4.949872869687    0.109696629772
 N    3.415767196344   -5.532302869687    0.178236629772
 C    4.391307196344   -4.644642869687    0.124866629772
 N    4.184807196344   -3.279282869687    0.029346629772
 H    4.986647196344   -2.659882869687   -0.074703370228
 N    5.696657196344   -5.065632869687    0.091106629772
 H    6.412867196344   -4.456972869687    0.469466629772
 H    5.817287196344   -6.050882869687    0.300876629772
 C    2.937057196344   -2.632722869687   -0.041103370228
 O    2.865177196344   -1.399452869687   -0.163083370228
 C    1.868377196344   -3.588732869687    0.030446629772
 N    0.500417196344   -3.393302869687   -0.038173370228
 C   -0.005392803656   -4.626482869687    0.016526629772
 H   -1.064122803656   -4.868932869687   -0.007343370228
 H    0.833587196344   -6.595942869687    0.152996629772
 K    0.386877196344   -0.743102869687    0.006306629772
 C   -1.968172658680    3.780420936559   -0.032067250418
 N   -0.600215394307    3.584985898830    0.036552508947
 C   -0.094403157080    4.818170914227   -0.018140987670
 H    0.964329196456    5.060618886539    0.005728329413
 N   -1.071539151334    5.782703496936   -0.108255071619
 H   -0.933377327088    6.787631642081   -0.154613749499
 C   -2.288067064124    5.141563527362   -0.111320429205
 C   -3.036857587909    2.824402615704    0.039476824318
 O   -2.964977641033    1.591142525403    0.161450069370
 N   -4.284602839124    3.470964189043   -0.030979164439
 H   -5.086443094788    2.851568977037    0.073066533887
 C   -4.491102331133    4.836326650352   -0.126505418150
 N   -3.515570649387    5.723988590509   -0.179862875983
 N   -5.796448835925    5.257316286894   -0.092742876027
 H   -6.512666252793    4.648655435462   -0.471106568536
 H   -5.917085809903    6.242574705145   -0.302514135676
