33

 N    1.033100254101   -5.708858365297    0.107636334675
 C    2.249630254101   -5.067718365297    0.110696334675
 N    3.477120254101   -5.650148365297    0.179236334675
 C    4.452660254101   -4.762488365297    0.125866334675
 N    4.246160254101   -3.397128365297    0.030346334675
 H    5.048000254101   -2.777728365297   -0.073703665325
 N    5.758010254101   -5.183478365297    0.092106334675
 H    6.474220254101   -4.574818365297    0.470466334675
 H    5.878640254101   -6.168728365297    0.301876334675
 C    2.998410254101   -2.750568365297   -0.040103665325
 O    2.926530254101   -1.517298365297   -0.162083665325
 C    1.929730254101   -3.706578365297    0.031446334675
 N    0.561770254101   -3.511148365297   -0.037173665325
 C    0.055960254101   -4.744328365297    0.017526334675
 H   -1.002769745899   -4.986778365297   -0.006343665325
 H    0.894940254101   -6.713788365297    0.153996334675
 K    0.448230254101   -0.860948365297    0.007306334675
 C   -2.045351945336    3.928665076610   -0.033324832584
 N   -0.677394680962    3.733230038881    0.035294926781
 C   -0.171582443736    4.966415054278   -0.019398569836
 H    0.887149909800    5.208863026591    0.004470747246
 N   -1.148718437990    5.930947636987   -0.109512653786
 H   -1.010556613744    6.935875782133   -0.155871331666
 C   -2.365246350780    5.289807667413   -0.112578011372
 C   -3.114036874564    2.972646755755    0.038219242152
 O   -3.042156927689    1.739386665455    0.160192487203
 N   -4.361782125779    3.619208329094   -0.032236746606
 H   -5.163622381444    2.999813117089    0.071808951720
 C   -4.568281617788    4.984570790404   -0.127763000316
 N   -3.592749936043    5.872232730561   -0.181120458150
 N   -5.873628122581    5.405560426945   -0.094000458193
 H   -6.589845539449    4.796899575514   -0.472364150703
 H   -5.994265096559    6.390818845196   -0.303771717843
