33

 N    1.074002292606   -5.787422029037    0.108302804611
 C    2.290532292606   -5.146282029037    0.111362804611
 N    3.518022292606   -5.728712029037    0.179902804611
 C    4.493562292606   -4.841052029037    0.126532804611
 N    4.287062292606   -3.475692029037    0.031012804611
 H    5.088902292606   -2.856292029037   -0.073037195389
 N    5.798912292606   -5.262042029037    0.092772804611
 H    6.515122292606   -4.653382029037    0.471132804611
 H    5.919542292606   -6.247292029037    0.302542804611
 C    3.039312292606   -2.829132029037   -0.039437195389
 O    2.967432292606   -1.595862029037   -0.161417195389
 C    1.970632292606   -3.785142029037    0.032112804611
 N    0.602672292606   -3.589712029037   -0.036507195389
 C    0.096862292606   -4.822892029037    0.018192804611
 H   -0.961867707394   -5.065342029037   -0.005677195389
 H    0.935842292606   -6.792352029037    0.154662804611
 K    0.489132292606   -0.939512029037    0.007972804611
 C   -2.096804803107    4.027494503311   -0.034163220695
 N   -0.728847538733    3.832059465582    0.034456538670
 C   -0.223035301506    5.065244480979   -0.020236957947
 H    0.835697052029    5.307692453292    0.003632359135
 N   -1.200171295760    6.029777063688   -0.110351041897
 H   -1.062009471514    7.034705208834   -0.156709719777
 C   -2.416699208551    5.388637094114   -0.113416399483
 C   -3.165489732335    3.071476182456    0.037380854041
 O   -3.093609785460    1.838216092156    0.159354099092
 N   -4.413234983550    3.718037755795   -0.033075134717
 H   -5.215075239215    3.098642543790    0.070970563609
 C   -4.619734475559    5.083400217105   -0.128601388428
 N   -3.644202793813    5.971062157262   -0.181958846261
 N   -5.925080980351    5.504389853646   -0.094838846304
 H   -6.641298397220    4.895729002215   -0.473202538814
 H   -6.045717954330    6.489648271897   -0.304610105954
