33

 N    1.094453311859   -5.826703860907    0.108636039578
 C    2.310983311859   -5.185563860907    0.111696039578
 N    3.538473311859   -5.767993860907    0.180236039578
 C    4.514013311859   -4.880333860907    0.126866039578
 N    4.307513311859   -3.514973860907    0.031346039578
 H    5.109353311859   -2.895573860907   -0.072703960422
 N    5.819363311859   -5.301323860907    0.093106039578
 H    6.535573311859   -4.692663860907    0.471466039578
 H    5.939993311859   -6.286573860907    0.302876039578
 C    3.059763311859   -2.868413860907   -0.039103960422
 O    2.987883311859   -1.635143860907   -0.161083960422
 C    1.991083311859   -3.824423860907    0.032446039578
 N    0.623123311859   -3.628993860907   -0.036173960422
 C    0.117313311859   -4.862173860907    0.018526039578
 H   -0.941416688141   -5.104623860907   -0.005343960422
 H    0.956293311859   -6.831633860907    0.154996039578
 K    0.509583311859   -0.978793860907    0.008306039578
 C   -2.122531231992    4.076909216662   -0.034582414751
 N   -0.754573967618    3.881474178933    0.034037344614
 C   -0.248761730392    5.114659194330   -0.020656152003
 H    0.809970623144    5.357107166642    0.003213165080
 N   -1.225897724646    6.079191777039   -0.110770235953
 H   -1.087735900400    7.084119922184   -0.157128913833
 C   -2.442425637436    5.438051807465   -0.113835593539
 C   -3.191216161220    3.120890895807    0.036961659985
 O   -3.119336214345    1.887630805506    0.158934905036
 N   -4.438961412435    3.767452469146   -0.033494328773
 H   -5.240801668100    3.148057257140    0.070551369554
 C   -4.645460904444    5.132814930455   -0.129020582483
 N   -3.669929222698    6.020476870612   -0.182378040316
 N   -5.950807409237    5.553804566997   -0.095258040360
 H   -6.667024826105    4.945143715565   -0.473621732870
 H   -6.071444383215    6.539062985248   -0.305029300010
