33

 N    1.114904331111   -5.865985692777    0.108969274546
 C    2.331434331111   -5.224845692777    0.112029274546
 N    3.558924331111   -5.807275692777    0.180569274546
 C    4.534464331111   -4.919615692777    0.127199274546
 N    4.327964331111   -3.554255692777    0.031679274546
 H    5.129804331111   -2.934855692777   -0.072370725454
 N    5.839814331111   -5.340605692777    0.093439274546
 H    6.556024331111   -4.731945692777    0.471799274546
 H    5.960444331111   -6.325855692777    0.303209274546
 C    3.080214331111   -2.907695692777   -0.038770725454
 O    3.008334331111   -1.674425692777   -0.160750725454
 C    2.011534331111   -3.863705692777    0.032779274546
 N    0.643574331111   -3.668275692777   -0.035840725454
 C    0.137764331111   -4.901455692777    0.018859274546
 H   -0.920965668889   -5.143905692777   -0.005010725454
 H    0.976744331111   -6.870915692777    0.155329274546
 K    0.530034331111   -1.018075692777    0.008639274546
 C   -2.148257660877    4.126323930012   -0.035001608806
 N   -0.780300396503    3.930888892283    0.033618150558
 C   -0.274488159277    5.164073907680   -0.021075346059
 H    0.784244194259    5.406521879993    0.002793971024
 N   -1.251624153531    6.128606490389   -0.111189430008
 H   -1.113462329285    7.133534635535   -0.157548107888
 C   -2.468152066321    5.487466520815   -0.114254787594
 C   -3.216942590106    3.170305609157    0.036542465930
 O   -3.145062643230    1.937045518857    0.158515710981
 N   -4.464687841321    3.816867182496   -0.033913522828
 H   -5.266528096985    3.197471970491    0.070132175498
 C   -4.671187333329    5.182229643806   -0.129439776539
 N   -3.695655651584    6.069891583963   -0.182797234372
 N   -5.976533838122    5.603219280347   -0.095677234415
 H   -6.692751254990    4.994558428916   -0.474040926925
 H   -6.097170812100    6.588477698598   -0.305448494065
