33

 N    1.176257388869   -5.983831188387    0.109968979449
 C    2.392787388869   -5.342691188387    0.113028979449
 N    3.620277388869   -5.925121188387    0.181568979449
 C    4.595817388869   -5.037461188387    0.128198979449
 N    4.389317388869   -3.672101188387    0.032678979449
 H    5.191157388869   -3.052701188387   -0.071371020551
 N    5.901167388869   -5.458451188387    0.094438979449
 H    6.617377388869   -4.849791188387    0.472798979449
 H    6.021797388869   -6.443701188387    0.304208979449
 C    3.141567388869   -3.025541188387   -0.037771020551
 O    3.069687388869   -1.792271188387   -0.159751020551
 C    2.072887388869   -3.981551188387    0.033778979449
 N    0.704927388869   -3.786121188387   -0.034841020551
 C    0.199117388869   -5.019301188387    0.019858979449
 H   -0.859612611131   -5.261751188387   -0.004011020551
 H    1.038097388869   -6.988761188387    0.156328979449
 K    0.591387388869   -1.135921188387    0.009638979449
 C   -2.225436947533    4.274568070064   -0.036259190973
 N   -0.857479683159    4.079133032335    0.032360568392
 C   -0.351667445933    5.312318047732   -0.022332928225
 H    0.707064907603    5.554766020044    0.001536388858
 N   -1.328803440187    6.276850630441   -0.112447012175
 H   -1.190641615941    7.281778775586   -0.158805690055
 C   -2.545331352977    5.635710660867   -0.115512369761
 C   -3.294121876761    3.318549749209    0.035284883763
 O   -3.222241929886    2.085289658908    0.157258128814
 N   -4.541867127976    3.965111322548   -0.035171104995
 H   -5.343707383641    3.345716110542    0.068874593332
 C   -4.748366619985    5.330473783857   -0.130697358705
 N   -3.772834938239    6.218135724014   -0.184054816538
 N   -6.053713124778    5.751463420399   -0.096934816582
 H   -6.769930541646    5.142802568967   -0.475298509092
 H   -6.174350098756    6.736721838650   -0.306706076232
