33

 N    1.196708408121   -6.023113020257    0.110302214417
 C    2.413238408121   -5.381973020257    0.113362214417
 N    3.640728408121   -5.964403020257    0.181902214417
 C    4.616268408121   -5.076743020257    0.128532214417
 N    4.409768408121   -3.711383020257    0.033012214417
 H    5.211608408121   -3.091983020257   -0.071037785583
 N    5.921618408121   -5.497733020257    0.094772214417
 H    6.637828408121   -4.889073020257    0.473132214417
 H    6.042248408121   -6.482983020257    0.304542214417
 C    3.162018408121   -3.064823020257   -0.037437785583
 O    3.090138408121   -1.831553020257   -0.159417785583
 C    2.093338408121   -4.020833020257    0.034112214417
 N    0.725378408121   -3.825403020257   -0.034507785583
 C    0.219568408121   -5.058583020257    0.020192214417
 H   -0.839161591879   -5.301033020257   -0.003677785583
 H    1.058548408121   -7.028043020257    0.156662214417
 K    0.611838408121   -1.175203020257    0.009972214417
 C   -2.251163376418    4.323982783414   -0.036678385029
 N   -0.883206112044    4.128547745685    0.031941374336
 C   -0.377393874818    5.361732761082   -0.022752122281
 H    0.681338478718    5.604180733395    0.001117194802
 N   -1.354529869072    6.326265343791   -0.112866206230
 H   -1.216368044826    7.331193488937   -0.159224884110
 C   -2.571057781862    5.685125374217   -0.115931563816
 C   -3.319848305647    3.367964462559    0.034865689707
 O   -3.247968358771    2.134704372259    0.156838934759
 N   -4.567593556862    4.014526035898   -0.035590299050
 H   -5.369433812526    3.395130823893    0.068455399276
 C   -4.774093048871    5.379888497208   -0.131116552761
 N   -3.798561367125    6.267550437365   -0.184474010594
 N   -6.079439553663    5.800878133749   -0.097354010638
 H   -6.795656970531    5.192217282318   -0.475717703147
 H   -6.200076527641    6.786136552000   -0.307125270287
