33

 N    1.237610446626   -6.101676683997    0.110968684353
 C    2.454140446626   -5.460536683997    0.114028684353
 N    3.681630446626   -6.042966683997    0.182568684353
 C    4.657170446626   -5.155306683997    0.129198684353
 N    4.450670446626   -3.789946683997    0.033678684353
 H    5.252510446626   -3.170546683997   -0.070371315647
 N    5.962520446626   -5.576296683997    0.095438684353
 H    6.678730446626   -4.967636683997    0.473798684353
 H    6.083150446626   -6.561546683997    0.305208684353
 C    3.202920446626   -3.143386683997   -0.036771315647
 O    3.131040446626   -1.910116683997   -0.158751315647
 C    2.134240446626   -4.099396683997    0.034778684353
 N    0.766280446626   -3.903966683997   -0.033841315647
 C    0.260470446626   -5.137146683997    0.020858684353
 H   -0.798259553374   -5.379596683997   -0.003011315647
 H    1.099450446626   -7.106606683997    0.157328684353
 K    0.652740446626   -1.253766683997    0.010638684353
 C   -2.302616234189    4.422812210115   -0.037516773140
 N   -0.934658969815    4.227377172386    0.031102986225
 C   -0.428846732589    5.460562187783   -0.023590510392
 H    0.629885620947    5.703010160096    0.000278806691
 N   -1.405982726843    6.425094770492   -0.113704594341
 H   -1.267820902597    7.430022915638   -0.160063272221
 C   -2.622510639633    5.783954800918   -0.116769951928
 C   -3.371301163417    3.466793889260    0.034027301596
 O   -3.299421216542    2.233533798960    0.156000546648
 N   -4.619046414632    4.113355462599   -0.036428687161
 H   -5.420886670297    3.493960250594    0.067617011165
 C   -4.825545906641    5.478717923908   -0.131954940872
 N   -3.850014224895    6.366379864066   -0.185312398705
 N   -6.130892411433    5.899707560450   -0.098192398749
 H   -6.847109828302    5.291046709019   -0.476556091258
 H   -6.251529385412    6.884965978701   -0.307963658398
