33

 N    1.278512485131   -6.180240347737    0.111635154288
 C    2.495042485131   -5.539100347737    0.114695154288
 N    3.722532485131   -6.121530347737    0.183235154288
 C    4.698072485131   -5.233870347737    0.129865154288
 N    4.491572485131   -3.868510347737    0.034345154288
 H    5.293412485131   -3.249110347737   -0.069704845712
 N    6.003422485131   -5.654860347737    0.096105154288
 H    6.719632485131   -5.046200347737    0.474465154288
 H    6.124052485131   -6.640110347737    0.305875154288
 C    3.243822485131   -3.221950347737   -0.036104845712
 O    3.171942485131   -1.988680347737   -0.158084845712
 C    2.175142485131   -4.177960347737    0.035445154288
 N    0.807182485131   -3.982530347737   -0.033174845712
 C    0.301372485131   -5.215710347737    0.021525154288
 H   -0.757357514869   -5.458160347737   -0.002344845712
 H    1.140352485131   -7.185170347737    0.157995154288
 K    0.693642485131   -1.332330347737    0.011305154288
 C   -2.354069091959    4.521641636816   -0.038355161251
 N   -0.986111827586    4.326206599087    0.030264598114
 C   -0.480299590359    5.559391614484   -0.024428898503
 H    0.578432763177    5.801839586797   -0.000559581420
 N   -1.457435584613    6.523924197193   -0.114542982453
 H   -1.319273760367    7.528852342339   -0.160901660333
 C   -2.673963497403    5.882784227619   -0.117608340039
 C   -3.422754021188    3.565623315961    0.033188913485
 O   -3.350874074312    2.332363225661    0.155162158537
 N   -4.670499272403    4.212184889300   -0.037267075273
 H   -5.472339528067    3.592789677295    0.066778623054
 C   -4.876998764412    5.577547350609   -0.132793328983
 N   -3.901467082666    6.465209290767   -0.186150786816
 N   -6.182345269204    5.998536987151   -0.099030786860
 H   -6.898562686072    5.389876135720   -0.477394479369
 H   -6.302982243182    6.983795405402   -0.308802046510
