33

 N    1.442120639151   -6.494495002697    0.114301034030
 C    2.658650639151   -5.853355002697    0.117361034030
 N    3.886140639151   -6.435785002697    0.185901034030
 C    4.861680639151   -5.548125002697    0.132531034030
 N    4.655180639151   -4.182765002697    0.037011034030
 H    5.457020639151   -3.563365002697   -0.067038965970
 N    6.167030639151   -5.969115002697    0.098771034030
 H    6.883240639151   -5.360455002697    0.477131034030
 H    6.287660639151   -6.954365002697    0.308541034030
 C    3.407430639151   -3.536205002697   -0.033438965970
 O    3.335550639151   -2.302935002697   -0.155418965970
 C    2.338750639151   -4.492215002697    0.038111034030
 N    0.970790639151   -4.296785002697   -0.030508965970
 C    0.464980639151   -5.529965002697    0.024191034030
 H   -0.593749360849   -5.772415002697    0.000321034030
 H    1.303960639151   -7.499425002697    0.160661034030
 K    0.857250639151   -1.646585002697    0.013971034030
 C   -2.559880523041    4.916959343620   -0.041708713695
 N   -1.191923258668    4.721524305891    0.026911045670
 C   -0.686111021441    5.954709321288   -0.027782450947
 H    0.372621332095    6.197157293601   -0.003913133864
 N   -1.663247015695    6.919241903997   -0.117896534897
 H   -1.525085191449    7.924170049143   -0.164255212777
 C   -2.879774928485    6.278101934423   -0.120961892483
 C   -3.628565452270    3.960941022765    0.029835361041
 O   -3.556685505394    2.727680932465    0.151808606092
 N   -4.876310703485    4.607502596104   -0.040620627717
 H   -5.678150959149    3.988107384099    0.063425070609
 C   -5.082810195494    5.972865057413   -0.136146881427
 N   -4.107278513748    6.860526997571   -0.189504339260
 N   -6.388156700286    6.393854693955   -0.102384339304
 H   -7.104374117154    5.785193842524   -0.480748031814
 H   -6.508793674264    7.379113112206   -0.312155598954
