33

 N    1.646630831676   -6.887313321397    0.117633383708
 C    2.863160831676   -6.246173321397    0.120693383708
 N    4.090650831676   -6.828603321397    0.189233383708
 C    5.066190831676   -5.940943321397    0.135863383708
 N    4.859690831676   -4.575583321397    0.040343383708
 H    5.661530831676   -3.956183321397   -0.063706616292
 N    6.371540831676   -6.361933321397    0.102103383708
 H    7.087750831676   -5.753273321397    0.480463383708
 H    6.492170831676   -7.347183321397    0.311873383708
 C    3.611940831676   -3.929023321397   -0.030106616292
 O    3.540060831676   -2.695753321397   -0.152086616292
 C    2.543260831676   -4.885033321397    0.041443383708
 N    1.175300831676   -4.689603321397   -0.027176616292
 C    0.669490831676   -5.922783321397    0.027523383708
 H   -0.389239168324   -6.165233321397    0.003653383708
 H    1.508470831676   -7.892243321397    0.163993383708
 K    1.061760831676   -2.039403321397    0.017303383708
 C   -2.817144811894    5.411106477125   -0.045900654251
 N   -1.449187547520    5.215671439396    0.022719105114
 C   -0.943375310294    6.448856454793   -0.031974391503
 H    0.115357043242    6.691304427106   -0.008105074420
 N   -1.920511304548    7.413389037502   -0.122088475452
 H   -1.782349480302    8.418317182648   -0.168447153332
 C   -3.137039217338    6.772249067928   -0.125153833038
 C   -3.885829741122    4.455088156270    0.025643420485
 O   -3.813949794247    3.221828065970    0.147616665537
 N   -5.133574992337    5.101649729609   -0.044812568272
 H   -5.935415248002    4.482254517604    0.059233130054
 C   -5.340074484346    6.467012190918   -0.140338821983
 N   -4.364542802600    7.354674131076   -0.193696279816
 N   -6.645420989139    6.888001827460   -0.106576279860
 H   -7.361638406007    6.279340976029   -0.484939972369
 H   -6.766057963117    7.873260245711   -0.316347539509
