33

 N    1.748885927938   -7.083722480747    0.119299558547
 C    2.965415927938   -6.442582480747    0.122359558547
 N    4.192905927938   -7.025012480747    0.190899558547
 C    5.168445927938   -6.137352480747    0.137529558547
 N    4.961945927938   -4.771992480747    0.042009558547
 H    5.763785927938   -4.152592480747   -0.062040441453
 N    6.473795927938   -6.558342480747    0.103769558547
 H    7.190005927938   -5.949682480747    0.482129558547
 H    6.594425927938   -7.543592480747    0.313539558547
 C    3.714195927938   -4.125432480747   -0.028440441453
 O    3.642315927938   -2.892162480747   -0.150420441453
 C    2.645515927938   -5.081442480747    0.043109558547
 N    1.277555927938   -4.886012480747   -0.025510441453
 C    0.771745927938   -6.119192480747    0.029189558547
 H   -0.286984072062   -6.361642480747    0.005319558547
 H    1.610725927938   -8.088652480747    0.165659558547
 K    1.164015927938   -2.235812480747    0.018969558547
 C   -2.945776956320    5.658180043878   -0.047996624528
 N   -1.577819691946    5.462745006149    0.020623134837
 C   -1.072007454720    6.695930021546   -0.034070361780
 H   -0.013275101184    6.938377993858   -0.010201044698
 N   -2.049143448974    7.660462604254   -0.124184445730
 H   -1.910981624728    8.665390749400   -0.170543123610
 C   -3.265671361764    7.019322634681   -0.127249803316
 C   -4.014461885549    4.702161723023    0.023547450208
 O   -3.942581938673    3.468901632722    0.145520695259
 N   -5.262207136764    5.348723296362   -0.046908538550
 H   -6.064047392428    4.729328084356    0.057137159776
 C   -5.468706628773    6.714085757671   -0.142434792261
 N   -4.493174947027    7.601747697828   -0.195792250094
 N   -6.774053133565    7.135075394213   -0.108672250137
 H   -7.490270550433    6.526414542781   -0.487035942647
 H   -6.894690107543    8.120333812463   -0.318443509787
