33

 N    1.769336947190   -7.123004312617    0.119632793515
 C    2.985866947190   -6.481864312617    0.122692793515
 N    4.213356947190   -7.064294312617    0.191232793515
 C    5.188896947190   -6.176634312617    0.137862793515
 N    4.982396947190   -4.811274312617    0.042342793515
 H    5.784236947190   -4.191874312617   -0.061707206485
 N    6.494246947190   -6.597624312617    0.104102793515
 H    7.210456947190   -5.988964312617    0.482462793515
 H    6.614876947190   -7.582874312617    0.313872793515
 C    3.734646947190   -4.164714312617   -0.028107206485
 O    3.662766947190   -2.931444312617   -0.150087206485
 C    2.665966947190   -5.120724312617    0.043442793515
 N    1.298006947190   -4.925294312617   -0.025177206485
 C    0.792196947190   -6.158474312617    0.029522793515
 H   -0.266533052810   -6.400924312617    0.005652793515
 H    1.631176947190   -8.127934312617    0.165992793515
 K    1.184466947190   -2.275094312617    0.019302793515
 C   -2.971503385205    5.707594757228   -0.048415818584
 N   -1.603546120832    5.512159719499    0.020203940781
 C   -1.097733883605    6.745344734896   -0.034489555836
 H   -0.039001530069    6.987792707209   -0.010620238753
 N   -2.074869877859    7.709877317605   -0.124603639786
 H   -1.936708053613    8.714805462751   -0.170962317666
 C   -3.291397790650    7.068737348031   -0.127668997372
 C   -4.040188314434    4.751576436373    0.023128256152
 O   -3.968308367558    3.518316346072    0.145101501203
 N   -5.287933565649    5.398138009712   -0.047327732606
 H   -6.089773821314    4.778742797707    0.056717965721
 C   -5.494433057658    6.763500471021   -0.142853986316
 N   -4.518901375912    7.651162411179   -0.196211444149
 N   -6.799779562450    7.184490107563   -0.109091444193
 H   -7.515996979318    6.575829256132   -0.487455136703
 H   -6.920416536429    8.169748525814   -0.318862703843
