33

 N    1.932945101210   -7.437258967577    0.122298673257
 C    3.149475101210   -6.796118967577    0.125358673257
 N    4.376965101210   -7.378548967577    0.193898673257
 C    5.352505101210   -6.490888967577    0.140528673257
 N    5.146005101210   -5.125528967577    0.045008673257
 H    5.947845101210   -4.506128967577   -0.059041326743
 N    6.657855101210   -6.911878967577    0.106768673257
 H    7.374065101210   -6.303218967577    0.485128673257
 H    6.778485101210   -7.897128967577    0.316538673257
 C    3.898255101210   -4.478968967577   -0.025441326743
 O    3.826375101210   -3.245698967577   -0.147421326743
 C    2.829575101210   -5.434978967577    0.046108673257
 N    1.461615101210   -5.239548967577   -0.022511326743
 C    0.955805101210   -6.472728967577    0.032188673257
 H   -0.102924898790   -6.715178967577    0.008318673257
 H    1.794785101210   -8.442188967577    0.168658673257
 K    1.348075101210   -2.589348967577    0.021968673257
 C   -3.177314816287    6.102912464032   -0.051769371028
 N   -1.809357551914    5.907477426303    0.016850388337
 C   -1.303545314687    7.140662441700   -0.037843108280
 H   -0.244812961152    7.383110414013   -0.013973791198
 N   -2.280681308941    8.105195024409   -0.127957192230
 H   -2.142519484695    9.110123169555   -0.174315870110
 C   -3.497209221732    7.464055054835   -0.131022549816
 C   -4.245999745516    5.146894143177    0.019774703708
 O   -4.174119798640    3.913634052876    0.141747948759
 N   -5.493744996731    5.793455716516   -0.050681285050
 H   -6.295585252396    5.174060504511    0.053364413276
 C   -5.700244488740    7.158818177825   -0.146207538760
 N   -4.724712806994    8.046480117983   -0.199564996593
 N   -7.005590993532    7.579807814367   -0.112444996637
 H   -7.721808410400    6.971146962936   -0.490808689147
 H   -7.126227967511    8.565066232618   -0.322216256287
