27

 C   -2.283465518052   -7.513311298978    0.000000000000
 H   -2.104945518052   -8.590331298978    0.000000000000
 C   -1.201045518052   -6.615821298978    0.000000000000
 H   -0.177825518052   -6.999361298978    0.000000000000
 C   -3.595335518052   -7.011611298978    0.000000000000
 H   -4.446795518052   -7.696021298978    0.000000000000
 C   -1.418505518052   -5.227551298978    0.000000000000
 H   -0.582545518052   -4.524481298978    0.000000000000
 C   -3.825145518052   -5.625301298978    0.000000000000
 H   -4.847965518052   -5.236341298978    0.000000000000
 C   -2.734715518052   -4.740191298978    0.000000000000
 O   -2.900385518052   -3.362391298978    0.000000000000
 H   -3.850215518052   -3.176481298978    0.000000000000
RB    1.180934481948    1.369048701022    0.000000000000
 O    1.834102900922    2.126261363658    0.000000000000
 H    2.783928687885    1.940345799708    0.000000000000
 C    1.668431289912    3.504056600878    0.000000000000
 C    0.352222802502    3.991416580020    0.000000000000
 H   -0.483737827528    3.288344065169    0.000000000000
 C    0.134756535549    5.379687253462    0.000000000000
 H   -0.888465121170    5.763221018365    0.000000000000
 C    1.217177685639    6.277173556332    0.000000000000
 H    1.038658396155    7.354198821440    0.000000000000
 C    2.529059386704    5.775477419201    0.000000000000
 H    3.380513663431    6.459880130361    0.000000000000
 C    2.758866204187    4.389165701175    0.000000000000
 H    3.781687024752    4.000210321448    0.000000000000
