27

 C   -2.305965951868   -7.539395862937    0.000000000000
 H   -2.127445951868   -8.616415862937    0.000000000000
 C   -1.223545951868   -6.641905862937    0.000000000000
 H   -0.200325951868   -7.025445862937    0.000000000000
 C   -3.617835951868   -7.037695862937    0.000000000000
 H   -4.469295951868   -7.722105862937    0.000000000000
 C   -1.441005951868   -5.253635862937    0.000000000000
 H   -0.605045951868   -4.550565862937    0.000000000000
 C   -3.847645951868   -5.651385862937    0.000000000000
 H   -4.870465951868   -5.262425862937    0.000000000000
 C   -2.757215951868   -4.766275862937    0.000000000000
 O   -2.922885951868   -3.388475862937    0.000000000000
 H   -3.872715951868   -3.202565862937    0.000000000000
RB    1.158434048132    1.342964137063    0.000000000000
 O    1.876919309002    2.175898065962    0.000000000000
 H    2.826745095966    1.989982502012    0.000000000000
 C    1.711247697993    3.553693303182    0.000000000000
 C    0.395039210583    4.041053282325    0.000000000000
 H   -0.440921419447    3.337980767473    0.000000000000
 C    0.177572943630    5.429323955766    0.000000000000
 H   -0.845648713089    5.812857720669    0.000000000000
 C    1.259994093719    6.326810258636    0.000000000000
 H    1.081474804235    7.403835523745    0.000000000000
 C    2.571875794784    5.825114121506    0.000000000000
 H    3.423330071511    6.509516832666    0.000000000000
 C    2.801682612268    4.438802403479    0.000000000000
 H    3.824503432833    4.049847023752    0.000000000000
