27

 C   -2.328466385685   -7.565480426896    0.000000000000
 H   -2.149946385685   -8.642500426896    0.000000000000
 C   -1.246046385685   -6.667990426896    0.000000000000
 H   -0.222826385685   -7.051530426896    0.000000000000
 C   -3.640336385685   -7.063780426896    0.000000000000
 H   -4.491796385685   -7.748190426896    0.000000000000
 C   -1.463506385685   -5.279720426896    0.000000000000
 H   -0.627546385685   -4.576650426896    0.000000000000
 C   -3.870146385685   -5.677470426896    0.000000000000
 H   -4.892966385685   -5.288510426896    0.000000000000
 C   -2.779716385685   -4.792360426896    0.000000000000
 O   -2.945386385685   -3.414560426896    0.000000000000
 H   -3.895216385685   -3.228650426896    0.000000000000
RB    1.135933614315    1.316879573104    0.000000000000
 O    1.919735717083    2.225534768267    0.000000000000
 H    2.869561504047    2.039619204316    0.000000000000
 C    1.754064106074    3.603330005486    0.000000000000
 C    0.437855618664    4.090689984629    0.000000000000
 H   -0.398105011367    3.387617469778    0.000000000000
 C    0.220389351711    5.478960658070    0.000000000000
 H   -0.802832305009    5.862494422973    0.000000000000
 C    1.302810501800    6.376446960940    0.000000000000
 H    1.124291212316    7.453472226049    0.000000000000
 C    2.614692202865    5.874750823810    0.000000000000
 H    3.466146479592    6.559153534970    0.000000000000
 C    2.844499020348    4.488439105783    0.000000000000
 H    3.867319840913    4.099483726057    0.000000000000
