27

 C   -2.350966819502   -7.591564990855    0.000000000000
 H   -2.172446819502   -8.668584990855    0.000000000000
 C   -1.268546819502   -6.694074990855    0.000000000000
 H   -0.245326819502   -7.077614990855    0.000000000000
 C   -3.662836819502   -7.089864990855    0.000000000000
 H   -4.514296819502   -7.774274990855    0.000000000000
 C   -1.486006819502   -5.305804990855    0.000000000000
 H   -0.650046819502   -4.602734990855    0.000000000000
 C   -3.892646819502   -5.703554990855    0.000000000000
 H   -4.915466819502   -5.314594990855    0.000000000000
 C   -2.802216819502   -4.818444990855    0.000000000000
 O   -2.967886819502   -3.440644990855    0.000000000000
 H   -3.917716819502   -3.254734990855    0.000000000000
RB    1.113433180498    1.290795009145    0.000000000000
 O    1.962552125164    2.275171470571    0.000000000000
 H    2.912377912127    2.089255906621    0.000000000000
 C    1.796880514154    3.652966707791    0.000000000000
 C    0.480672026744    4.140326686933    0.000000000000
 H   -0.355288603286    3.437254172082    0.000000000000
 C    0.263205759791    5.528597360375    0.000000000000
 H   -0.760015896928    5.912131125278    0.000000000000
 C    1.345626909881    6.426083663245    0.000000000000
 H    1.167107620397    7.503108928353    0.000000000000
 C    2.657508610945    5.924387526114    0.000000000000
 H    3.508962887672    6.608790237274    0.000000000000
 C    2.887315428429    4.538075808088    0.000000000000
 H    3.910136248994    4.149120428361    0.000000000000
