27

 C   -2.418468120952   -7.669818682733    0.000000000000
 H   -2.239948120952   -8.746838682733    0.000000000000
 C   -1.336048120952   -6.772328682733    0.000000000000
 H   -0.312828120952   -7.155868682733    0.000000000000
 C   -3.730338120952   -7.168118682733    0.000000000000
 H   -4.581798120952   -7.852528682733    0.000000000000
 C   -1.553508120952   -5.384058682733    0.000000000000
 H   -0.717548120952   -4.680988682733    0.000000000000
 C   -3.960148120952   -5.781808682733    0.000000000000
 H   -4.982968120952   -5.392848682733    0.000000000000
 C   -2.869718120952   -4.896698682733    0.000000000000
 O   -3.035388120952   -3.518898682733    0.000000000000
 H   -3.985218120952   -3.332988682733    0.000000000000
RB    1.045931879048    1.212541317267    0.000000000000
 O    2.091001349405    2.424081577484    0.000000000000
 H    3.040827136369    2.238166013534    0.000000000000
 C    1.925329738396    3.801876814704    0.000000000000
 C    0.609121250986    4.289236793846    0.000000000000
 H   -0.226839379045    3.586164278995    0.000000000000
 C    0.391654984033    5.677507467288    0.000000000000
 H   -0.631566672686    6.061041232191    0.000000000000
 C    1.474076134122    6.574993770158    0.000000000000
 H    1.295556844638    7.652019035266    0.000000000000
 C    2.785957835187    6.073297633027    0.000000000000
 H    3.637412111914    6.757700344188    0.000000000000
 C    3.015764652671    4.686985915001    0.000000000000
 H    4.038585473236    4.298030535274    0.000000000000
