27

 C   -2.440968554769   -7.695903246692    0.000000000000
 H   -2.262448554769   -8.772923246692    0.000000000000
 C   -1.358548554769   -6.798413246692    0.000000000000
 H   -0.335328554769   -7.181953246692    0.000000000000
 C   -3.752838554769   -7.194203246692    0.000000000000
 H   -4.604298554769   -7.878613246692    0.000000000000
 C   -1.576008554769   -5.410143246692    0.000000000000
 H   -0.740048554769   -4.707073246692    0.000000000000
 C   -3.982648554769   -5.807893246692    0.000000000000
 H   -5.005468554769   -5.418933246692    0.000000000000
 C   -2.892218554769   -4.922783246692    0.000000000000
 O   -3.057888554769   -3.544983246692    0.000000000000
 H   -4.007718554769   -3.359073246692    0.000000000000
RB    1.023431445231    1.186456753308    0.000000000000
 O    2.133817757486    2.473718279788    0.000000000000
 H    3.083643544449    2.287802715838    0.000000000000
 C    1.968146146476    3.851513517008    0.000000000000
 C    0.651937659066    4.338873496151    0.000000000000
 H   -0.184022970964    3.635800981300    0.000000000000
 C    0.434471392113    5.727144169592    0.000000000000
 H   -0.588750264606    6.110677934495    0.000000000000
 C    1.516892542203    6.624630472462    0.000000000000
 H    1.338373252719    7.701655737571    0.000000000000
 C    2.828774243268    6.122934335332    0.000000000000
 H    3.680228519995    6.807337046492    0.000000000000
 C    3.058581060751    4.736622617305    0.000000000000
 H    4.081401881316    4.347667237578    0.000000000000
