27

 C   -2.553470723853   -7.826326066488    0.000000000000
 H   -2.374950723853   -8.903346066488    0.000000000000
 C   -1.471050723853   -6.928836066488    0.000000000000
 H   -0.447830723853   -7.312376066488    0.000000000000
 C   -3.865340723853   -7.324626066488    0.000000000000
 H   -4.716800723853   -8.009036066488    0.000000000000
 C   -1.688510723853   -5.540566066488    0.000000000000
 H   -0.852550723853   -4.837496066488    0.000000000000
 C   -4.095150723853   -5.938316066488    0.000000000000
 H   -5.117970723853   -5.549356066488    0.000000000000
 C   -3.004720723853   -5.053206066488    0.000000000000
 O   -3.170390723853   -3.675406066488    0.000000000000
 H   -4.120220723853   -3.489496066488    0.000000000000
RB    0.910929276147    1.056033933512    0.000000000000
 O    2.347899797889    2.721901791310    0.000000000000
 H    3.297725584852    2.535986227360    0.000000000000
 C    2.182228186879    4.099697028530    0.000000000000
 C    0.866019699469    4.587057007672    0.000000000000
 H    0.030059069439    3.883984492821    0.000000000000
 C    0.648553432516    5.975327681114    0.000000000000
 H   -0.374668224203    6.358861446017    0.000000000000
 C    1.730974582606    6.872813983984    0.000000000000
 H    1.552455293122    7.949839249092    0.000000000000
 C    3.042856283671    6.371117846854    0.000000000000
 H    3.894310560398    7.055520558014    0.000000000000
 C    3.272663101154    4.984806128827    0.000000000000
 H    4.295483921719    4.595850749100    0.000000000000
