27

 C   -2.598471591486   -7.878495194407    0.000000000000
 H   -2.419951591486   -8.955515194407    0.000000000000
 C   -1.516051591486   -6.981005194407    0.000000000000
 H   -0.492831591486   -7.364545194407    0.000000000000
 C   -3.910341591486   -7.376795194407    0.000000000000
 H   -4.761801591486   -8.061205194407    0.000000000000
 C   -1.733511591486   -5.592735194407    0.000000000000
 H   -0.897551591486   -4.889665194407    0.000000000000
 C   -4.140151591486   -5.990485194407    0.000000000000
 H   -5.162971591486   -5.601525194407    0.000000000000
 C   -3.049721591486   -5.105375194407    0.000000000000
 O   -3.215391591486   -3.727575194407    0.000000000000
 H   -4.165221591486   -3.541665194407    0.000000000000
RB    0.865928408514    1.003864805593    0.000000000000
 O    2.433532614050    2.821175195919    0.000000000000
 H    3.383358401014    2.635259631969    0.000000000000
 C    2.267861003041    4.198970433139    0.000000000000
 C    0.951652515631    4.686330412281    0.000000000000
 H    0.115691885600    3.983257897430    0.000000000000
 C    0.734186248678    6.074601085723    0.000000000000
 H   -0.289035408042    6.458134850625    0.000000000000
 C    1.816607398767    6.972087388593    0.000000000000
 H    1.638088109283    8.049112653701    0.000000000000
 C    3.128489099832    6.470391251462    0.000000000000
 H    3.979943376559    7.154793962622    0.000000000000
 C    3.358295917315    5.084079533436    0.000000000000
 H    4.381116737880    4.695124153709    0.000000000000
