27

 C   -2.620972025303   -7.904579758366    0.000000000000
 H   -2.442452025303   -8.981599758366    0.000000000000
 C   -1.538552025303   -7.007089758366    0.000000000000
 H   -0.515332025303   -7.390629758366    0.000000000000
 C   -3.932842025303   -7.402879758366    0.000000000000
 H   -4.784302025303   -8.087289758366    0.000000000000
 C   -1.756012025303   -5.618819758366    0.000000000000
 H   -0.920052025303   -4.915749758366    0.000000000000
 C   -4.162652025303   -6.016569758366    0.000000000000
 H   -5.185472025303   -5.627609758366    0.000000000000
 C   -3.072222025303   -5.131459758366    0.000000000000
 O   -3.237892025303   -3.753659758366    0.000000000000
 H   -4.187722025303   -3.567749758366    0.000000000000
RB    0.843427974697    0.977780241634    0.000000000000
 O    2.476349022131    2.870811898223    0.000000000000
 H    3.426174809094    2.684896334273    0.000000000000
 C    2.310677411121    4.248607135443    0.000000000000
 C    0.994468923711    4.735967114586    0.000000000000
 H    0.158508293681    4.032894599734    0.000000000000
 C    0.777002656758    6.124237788027    0.000000000000
 H   -0.246218999961    6.507771552930    0.000000000000
 C    1.859423806848    7.021724090897    0.000000000000
 H    1.680904517364    8.098749356005    0.000000000000
 C    3.171305507912    6.520027953767    0.000000000000
 H    4.022759784639    7.204430664927    0.000000000000
 C    3.401112325396    5.133716235740    0.000000000000
 H    4.423933145961    4.744760856013    0.000000000000
