27

 C   -2.688473326753   -7.982833450243    0.000000000000
 H   -2.509953326753   -9.059853450243    0.000000000000
 C   -1.606053326753   -7.085343450243    0.000000000000
 H   -0.582833326753   -7.468883450243    0.000000000000
 C   -4.000343326753   -7.481133450243    0.000000000000
 H   -4.851803326753   -8.165543450243    0.000000000000
 C   -1.823513326753   -5.697073450243    0.000000000000
 H   -0.987553326753   -4.994003450243    0.000000000000
 C   -4.230153326753   -6.094823450243    0.000000000000
 H   -5.252973326753   -5.705863450243    0.000000000000
 C   -3.139723326753   -5.209713450243    0.000000000000
 O   -3.305393326753   -3.831913450243    0.000000000000
 H   -4.255223326753   -3.646003450243    0.000000000000
RB    0.775926673247    0.899526549757    0.000000000000
 O    2.604798246372    3.019722005136    0.000000000000
 H    3.554624033336    2.833806441186    0.000000000000
 C    2.439126635363    4.397517242356    0.000000000000
 C    1.122918147953    4.884877221499    0.000000000000
 H    0.286957517922    4.181804706647    0.000000000000
 C    0.905451881000    6.273147894940    0.000000000000
 H   -0.117769775719    6.656681659843    0.000000000000
 C    1.987873031089    7.170634197810    0.000000000000
 H    1.809353741605    8.247659462918    0.000000000000
 C    3.299754732154    6.668938060680    0.000000000000
 H    4.151209008881    7.353340771840    0.000000000000
 C    3.529561549637    5.282626342653    0.000000000000
 H    4.552382370203    4.893670962926    0.000000000000
