27

 C   -2.755974628204   -8.061087142121    0.000000000000
 H   -2.577454628204   -9.138107142121    0.000000000000
 C   -1.673554628204   -7.163597142121    0.000000000000
 H   -0.650334628204   -7.547137142121    0.000000000000
 C   -4.067844628204   -7.559387142121    0.000000000000
 H   -4.919304628204   -8.243797142121    0.000000000000
 C   -1.891014628204   -5.775327142121    0.000000000000
 H   -1.055054628204   -5.072257142121    0.000000000000
 C   -4.297654628204   -6.173077142121    0.000000000000
 H   -5.320474628204   -5.784117142121    0.000000000000
 C   -3.207224628204   -5.287967142121    0.000000000000
 O   -3.372894628204   -3.910167142121    0.000000000000
 H   -4.322724628204   -3.724257142121    0.000000000000
RB    0.708425371796    0.821272857879    0.000000000000
 O    2.733247470614    3.168632112049    0.000000000000
 H    3.683073257578    2.982716548099    0.000000000000
 C    2.567575859605    4.546427349269    0.000000000000
 C    1.251367372195    5.033787328412    0.000000000000
 H    0.415406742164    4.330714813560    0.000000000000
 C    1.033901105242    6.422058001853    0.000000000000
 H    0.010679448522    6.805591766756    0.000000000000
 C    2.116322255331    7.319544304723    0.000000000000
 H    1.937802965847    8.396569569832    0.000000000000
 C    3.428203956396    6.817848167593    0.000000000000
 H    4.279658233123    7.502250878753    0.000000000000
 C    3.658010773879    5.431536449566    0.000000000000
 H    4.680831594444    5.042581069839    0.000000000000
