27

 C   -2.823475929654   -8.139340833999    0.000000000000
 H   -2.644955929654   -9.216360833999    0.000000000000
 C   -1.741055929654   -7.241850833999    0.000000000000
 H   -0.717835929654   -7.625390833999    0.000000000000
 C   -4.135345929654   -7.637640833999    0.000000000000
 H   -4.986805929654   -8.322050833999    0.000000000000
 C   -1.958515929654   -5.853580833999    0.000000000000
 H   -1.122555929654   -5.150510833999    0.000000000000
 C   -4.365155929654   -6.251330833999    0.000000000000
 H   -5.387975929654   -5.862370833999    0.000000000000
 C   -3.274725929654   -5.366220833999    0.000000000000
 O   -3.440395929654   -3.988420833999    0.000000000000
 H   -4.390225929654   -3.802510833999    0.000000000000
RB    0.640924070346    0.743019166001    0.000000000000
 O    2.861696694856    3.317542218962    0.000000000000
 H    3.811522481819    3.131626655012    0.000000000000
 C    2.696025083846    4.695337456182    0.000000000000
 C    1.379816596436    5.182697435325    0.000000000000
 H    0.543855966406    4.479624920473    0.000000000000
 C    1.162350329483    6.570968108766    0.000000000000
 H    0.139128672764    6.954501873669    0.000000000000
 C    2.244771479573    7.468454411636    0.000000000000
 H    2.066252190089    8.545479676745    0.000000000000
 C    3.556653180637    6.966758274506    0.000000000000
 H    4.408107457364    7.651160985666    0.000000000000
 C    3.786459998121    5.580446556479    0.000000000000
 H    4.809280818686    5.191491176752    0.000000000000
