27

 C   -2.868476797288   -8.191509961917    0.000000000000
 H   -2.689956797288   -9.268529961917    0.000000000000
 C   -1.786056797288   -7.294019961917    0.000000000000
 H   -0.762836797288   -7.677559961917    0.000000000000
 C   -4.180346797288   -7.689809961917    0.000000000000
 H   -5.031806797288   -8.374219961917    0.000000000000
 C   -2.003516797288   -5.905749961917    0.000000000000
 H   -1.167556797288   -5.202679961917    0.000000000000
 C   -4.410156797288   -6.303499961917    0.000000000000
 H   -5.432976797288   -5.914539961917    0.000000000000
 C   -3.319726797288   -5.418389961917    0.000000000000
 O   -3.485396797288   -4.040589961917    0.000000000000
 H   -4.435226797288   -3.854679961917    0.000000000000
RB    0.595923202712    0.690850038083    0.000000000000
 O    2.947329511017    3.416815623571    0.000000000000
 H    3.897155297981    3.230900059621    0.000000000000
 C    2.781657900007    4.794610860791    0.000000000000
 C    1.465449412597    5.281970839933    0.000000000000
 H    0.629488782567    4.578898325082    0.000000000000
 C    1.247983145644    6.670241513375    0.000000000000
 H    0.224761488925    7.053775278278    0.000000000000
 C    2.330404295734    7.567727816245    0.000000000000
 H    2.151885006250    8.644753081353    0.000000000000
 C    3.642285996799    7.066031679114    0.000000000000
 H    4.493740273526    7.750434390275    0.000000000000
 C    3.872092814282    5.679719961088    0.000000000000
 H    4.894913634847    5.290764581361    0.000000000000
