27

 C   -2.890977231104   -8.217594525876    0.000000000000
 H   -2.712457231104   -9.294614525876    0.000000000000
 C   -1.808557231104   -7.320104525876    0.000000000000
 H   -0.785337231104   -7.703644525876    0.000000000000
 C   -4.202847231104   -7.715894525876    0.000000000000
 H   -5.054307231104   -8.400304525876    0.000000000000
 C   -2.026017231104   -5.931834525876    0.000000000000
 H   -1.190057231104   -5.228764525876    0.000000000000
 C   -4.432657231104   -6.329584525876    0.000000000000
 H   -5.455477231104   -5.940624525876    0.000000000000
 C   -3.342227231104   -5.444474525876    0.000000000000
 O   -3.507897231104   -4.066674525876    0.000000000000
 H   -4.457727231104   -3.880764525876    0.000000000000
RB    0.573422768896    0.664765474124    0.000000000000
 O    2.990145919097    3.466452325875    0.000000000000
 H    3.939971706061    3.280536761925    0.000000000000
 C    2.824474308088    4.844247563095    0.000000000000
 C    1.508265820678    5.331607542238    0.000000000000
 H    0.672305190648    4.628535027387    0.000000000000
 C    1.290799553725    6.719878215679    0.000000000000
 H    0.267577897006    7.103411980582    0.000000000000
 C    2.373220703814    7.617364518549    0.000000000000
 H    2.194701414331    8.694389783658    0.000000000000
 C    3.685102404879    7.115668381419    0.000000000000
 H    4.536556681606    7.800071092579    0.000000000000
 C    3.914909222363    5.729356663392    0.000000000000
 H    4.937730042928    5.340401283665    0.000000000000
