27

 C   -3.048480267822   -8.400186473591    0.000000000000
 H   -2.869960267822   -9.477206473591    0.000000000000
 C   -1.966060267822   -7.502696473591    0.000000000000
 H   -0.942840267822   -7.886236473591    0.000000000000
 C   -4.360350267822   -7.898486473591    0.000000000000
 H   -5.211810267822   -8.582896473591    0.000000000000
 C   -2.183520267822   -6.114426473591    0.000000000000
 H   -1.347560267822   -5.411356473591    0.000000000000
 C   -4.590160267822   -6.512176473591    0.000000000000
 H   -5.612980267822   -6.123216473591    0.000000000000
 C   -3.499730267822   -5.627066473591    0.000000000000
 O   -3.665400267822   -4.249266473591    0.000000000000
 H   -4.615230267822   -4.063356473591    0.000000000000
RB    0.415919732178    0.482173526409    0.000000000000
 O    3.289860775662    3.813909242006    0.000000000000
 H    4.239686562625    3.627993678055    0.000000000000
 C    3.124189164652    5.191704479226    0.000000000000
 C    1.807980677242    5.679064458368    0.000000000000
 H    0.972020047212    4.975991943517    0.000000000000
 C    1.590514410289    7.067335131810    0.000000000000
 H    0.567292753570    7.450868896712    0.000000000000
 C    2.672935560379    7.964821434679    0.000000000000
 H    2.494416270895    9.041846699788    0.000000000000
 C    3.984817261443    7.463125297549    0.000000000000
 H    4.836271538170    8.147528008709    0.000000000000
 C    4.214624078927    6.076813579522    0.000000000000
 H    5.237444899492    5.687858199796    0.000000000000
