27

 C   -3.138482003089   -8.504524729428    0.000000000000
 H   -2.959962003089   -9.581544729428    0.000000000000
 C   -2.056062003089   -7.607034729428    0.000000000000
 H   -1.032842003089   -7.990574729428    0.000000000000
 C   -4.450352003089   -8.002824729428    0.000000000000
 H   -5.301812003089   -8.687234729428    0.000000000000
 C   -2.273522003089   -6.218764729428    0.000000000000
 H   -1.437562003089   -5.515694729428    0.000000000000
 C   -4.680162003089   -6.616514729428    0.000000000000
 H   -5.702982003089   -6.227554729428    0.000000000000
 C   -3.589732003089   -5.731404729428    0.000000000000
 O   -3.755402003089   -4.353604729428    0.000000000000
 H   -4.705232003089   -4.167694729428    0.000000000000
RB    0.325917996911    0.377835270572    0.000000000000
 O    3.461126407984    4.012456051223    0.000000000000
 H    4.410952194948    3.826540487273    0.000000000000
 C    3.295454796974    5.390251288443    0.000000000000
 C    1.979246309564    5.877611267586    0.000000000000
 H    1.143285679534    5.174538752734    0.000000000000
 C    1.761780042611    7.265881941027    0.000000000000
 H    0.738558385892    7.649415705930    0.000000000000
 C    2.844201192701    8.163368243897    0.000000000000
 H    2.665681903217    9.240393509005    0.000000000000
 C    4.156082893766    7.661672106767    0.000000000000
 H    5.007537170493    8.346074817927    0.000000000000
 C    4.385889711249    6.275360388740    0.000000000000
 H    5.408710531814    5.886405009013    0.000000000000
