27

 C   -3.273484605989   -8.661032113183    0.000000000000
 H   -3.094964605989   -9.738052113183    0.000000000000
 C   -2.191064605989   -7.763542113183    0.000000000000
 H   -1.167844605989   -8.147082113183    0.000000000000
 C   -4.585354605989   -8.159332113183    0.000000000000
 H   -5.436814605989   -8.843742113183    0.000000000000
 C   -2.408524605989   -6.375272113183    0.000000000000
 H   -1.572564605989   -5.672202113183    0.000000000000
 C   -4.815164605989   -6.773022113183    0.000000000000
 H   -5.837984605989   -6.384062113183    0.000000000000
 C   -3.724734605989   -5.887912113183    0.000000000000
 O   -3.890404605989   -4.510112113183    0.000000000000
 H   -4.840234605989   -4.324202113183    0.000000000000
RB    0.190915394011    0.221327886817    0.000000000000
 O    3.718024856467    4.310276265049    0.000000000000
 H    4.667850643431    4.124360701099    0.000000000000
 C    3.552353245458    5.688071502269    0.000000000000
 C    2.236144758048    6.175431481412    0.000000000000
 H    1.400184128018    5.472358966560    0.000000000000
 C    2.018678491095    7.563702154853    0.000000000000
 H    0.995456834376    7.947235919756    0.000000000000
 C    3.101099641184    8.461188457723    0.000000000000
 H    2.922580351700    9.538213722832    0.000000000000
 C    4.412981342249    7.959492320593    0.000000000000
 H    5.264435618976    8.643895031753    0.000000000000
 C    4.642788159733    6.573180602566    0.000000000000
 H    5.665608980298    6.184225222839    0.000000000000
