27

 C   -3.295985039806   -8.687116677142    0.000000000000
 H   -3.117465039806   -9.764136677142    0.000000000000
 C   -2.213565039806   -7.789626677142    0.000000000000
 H   -1.190345039806   -8.173166677142    0.000000000000
 C   -4.607855039806   -8.185416677142    0.000000000000
 H   -5.459315039806   -8.869826677142    0.000000000000
 C   -2.431025039806   -6.401356677142    0.000000000000
 H   -1.595065039806   -5.698286677142    0.000000000000
 C   -4.837665039806   -6.799106677142    0.000000000000
 H   -5.860485039806   -6.410146677142    0.000000000000
 C   -3.747235039806   -5.913996677142    0.000000000000
 O   -3.912905039806   -4.536196677142    0.000000000000
 H   -4.862735039806   -4.350286677142    0.000000000000
RB    0.168414960194    0.195243322858    0.000000000000
 O    3.760841264548    4.359912967354    0.000000000000
 H    4.710667051512    4.173997403403    0.000000000000
 C    3.595169653539    5.737708204573    0.000000000000
 C    2.278961166129    6.225068183716    0.000000000000
 H    1.443000536098    5.521995668865    0.000000000000
 C    2.061494899176    7.613338857157    0.000000000000
 H    1.038273242456    7.996872622060    0.000000000000
 C    3.143916049265    8.510825160027    0.000000000000
 H    2.965396759781    9.587850425136    0.000000000000
 C    4.455797750330    8.009129022897    0.000000000000
 H    5.307252027057    8.693531734057    0.000000000000
 C    4.685604567813    6.622817304870    0.000000000000
 H    5.708425388378    6.233861925144    0.000000000000
