27

 C   -3.318485473623   -8.713201241101    0.000000000000
 H   -3.139965473623   -9.790221241101    0.000000000000
 C   -2.236065473623   -7.815711241101    0.000000000000
 H   -1.212845473623   -8.199251241101    0.000000000000
 C   -4.630355473623   -8.211501241101    0.000000000000
 H   -5.481815473623   -8.895911241101    0.000000000000
 C   -2.453525473623   -6.427441241101    0.000000000000
 H   -1.617565473623   -5.724371241101    0.000000000000
 C   -4.860165473623   -6.825191241101    0.000000000000
 H   -5.882985473623   -6.436231241101    0.000000000000
 C   -3.769735473623   -5.940081241101    0.000000000000
 O   -3.935405473623   -4.562281241101    0.000000000000
 H   -4.885235473623   -4.376371241101    0.000000000000
RB    0.145914526377    0.169158758899    0.000000000000
 O    3.803657672629    4.409549669658    0.000000000000
 H    4.753483459592    4.223634105708    0.000000000000
 C    3.637986061619    5.787344906878    0.000000000000
 C    2.321777574209    6.274704886020    0.000000000000
 H    1.485816944179    5.571632371169    0.000000000000
 C    2.104311307256    7.662975559462    0.000000000000
 H    1.081089650537    8.046509324365    0.000000000000
 C    3.186732457346    8.560461862332    0.000000000000
 H    3.008213167862    9.637487127440    0.000000000000
 C    4.498614158410    8.058765725201    0.000000000000
 H    5.350068435137    8.743168436361    0.000000000000
 C    4.728420975894    6.672454007175    0.000000000000
 H    5.751241796459    6.283498627448    0.000000000000
