27

 C   -3.363486341257   -8.765370369020    0.000000000000
 H   -3.184966341257   -9.842390369020    0.000000000000
 C   -2.281066341257   -7.867880369020    0.000000000000
 H   -1.257846341257   -8.251420369020    0.000000000000
 C   -4.675356341257   -8.263670369020    0.000000000000
 H   -5.526816341257   -8.948080369020    0.000000000000
 C   -2.498526341257   -6.479610369020    0.000000000000
 H   -1.662566341257   -5.776540369020    0.000000000000
 C   -4.905166341257   -6.877360369020    0.000000000000
 H   -5.927986341257   -6.488400369020    0.000000000000
 C   -3.814736341257   -5.992250369020    0.000000000000
 O   -3.980406341257   -4.614450369020    0.000000000000
 H   -4.930236341257   -4.428540369020    0.000000000000
RB    0.100913658743    0.116989630980    0.000000000000
 O    3.889290488790    4.508823074267    0.000000000000
 H    4.839116275753    4.322907510316    0.000000000000
 C    3.723618877780    5.886618311486    0.000000000000
 C    2.407410390370    6.373978290629    0.000000000000
 H    1.571449760340    5.670905775778    0.000000000000
 C    2.189944123417    7.762248964070    0.000000000000
 H    1.166722466698    8.145782728973    0.000000000000
 C    3.272365273507    8.659735266940    0.000000000000
 H    3.093845984023    9.736760532049    0.000000000000
 C    4.584246974571    8.158039129810    0.000000000000
 H    5.435701251298    8.842441840970    0.000000000000
 C    4.814053792055    6.771727411783    0.000000000000
 H    5.836874612620    6.382772032057    0.000000000000
