27

 C   -3.385986775073   -8.791454932979    0.000000000000
 H   -3.207466775073   -9.868474932979    0.000000000000
 C   -2.303566775073   -7.893964932979    0.000000000000
 H   -1.280346775073   -8.277504932979    0.000000000000
 C   -4.697856775073   -8.289754932979    0.000000000000
 H   -5.549316775073   -8.974164932979    0.000000000000
 C   -2.521026775073   -6.505694932979    0.000000000000
 H   -1.685066775073   -5.802624932979    0.000000000000
 C   -4.927666775073   -6.903444932979    0.000000000000
 H   -5.950486775073   -6.514484932979    0.000000000000
 C   -3.837236775073   -6.018334932979    0.000000000000
 O   -4.002906775073   -4.640534932979    0.000000000000
 H   -4.952736775073   -4.454624932979    0.000000000000
RB    0.078413224927    0.090905067021    0.000000000000
 O    3.932106896870    4.558459776571    0.000000000000
 H    4.881932683834    4.372544212621    0.000000000000
 C    3.766435285861    5.936255013791    0.000000000000
 C    2.450226798451    6.423614992933    0.000000000000
 H    1.614266168420    5.720542478082    0.000000000000
 C    2.232760531498    7.811885666375    0.000000000000
 H    1.209538874779    8.195419431278    0.000000000000
 C    3.315181681587    8.709371969245    0.000000000000
 H    3.136662392103    9.786397234353    0.000000000000
 C    4.627063382652    8.207675832114    0.000000000000
 H    5.478517659379    8.892078543275    0.000000000000
 C    4.856870200135    6.821364114088    0.000000000000
 H    5.879691020701    6.432408734361    0.000000000000
