27

 C   -3.453488076524   -8.869708624857    0.000000000000
 H   -3.274968076524   -9.946728624857    0.000000000000
 C   -2.371068076524   -7.972218624857    0.000000000000
 H   -1.347848076524   -8.355758624857    0.000000000000
 C   -4.765358076524   -8.368008624857    0.000000000000
 H   -5.616818076524   -9.052418624857    0.000000000000
 C   -2.588528076524   -6.583948624857    0.000000000000
 H   -1.752568076524   -5.880878624857    0.000000000000
 C   -4.995168076524   -6.981698624857    0.000000000000
 H   -6.017988076524   -6.592738624857    0.000000000000
 C   -3.904738076524   -6.096588624857    0.000000000000
 O   -4.070408076524   -4.718788624857    0.000000000000
 H   -5.020238076524   -4.532878624857    0.000000000000
RB    0.010911923476    0.012651375143    0.000000000000
 O    4.060556121112    4.707369883484    0.000000000000
 H    5.010381908076    4.521454319534    0.000000000000
 C    3.894884510103    6.085165120704    0.000000000000
 C    2.578676022693    6.572525099846    0.000000000000
 H    1.742715392662    5.869452584995    0.000000000000
 C    2.361209755740    7.960795773288    0.000000000000
 H    1.337988099020    8.344329538191    0.000000000000
 C    3.443630905829    8.858282076158    0.000000000000
 H    3.265111616345    9.935307341266    0.000000000000
 C    4.755512606894    8.356585939027    0.000000000000
 H    5.606966883621    9.040988650188    0.000000000000
 C    4.985319424377    6.970274221001    0.000000000000
 H    6.008140244942    6.581318841274    0.000000000000
