27

 C   -3.543489811791   -8.974046880693    0.000000000000
 H   -3.364969811791  -10.051066880693    0.000000000000
 C   -2.461069811791   -8.076556880693    0.000000000000
 H   -1.437849811791   -8.460096880693    0.000000000000
 C   -4.855359811791   -8.472346880693    0.000000000000
 H   -5.706819811791   -9.156756880693    0.000000000000
 C   -2.678529811791   -6.688286880693    0.000000000000
 H   -1.842569811791   -5.985216880693    0.000000000000
 C   -5.085169811791   -7.086036880693    0.000000000000
 H   -6.107989811791   -6.697076880693    0.000000000000
 C   -3.994739811791   -6.200926880693    0.000000000000
 O   -4.160409811791   -4.823126880693    0.000000000000
 H   -5.110239811791   -4.637216880693    0.000000000000
RB   -0.079089811791   -0.091686880693    0.000000000000
 O    4.231821753434    4.905916692701    0.000000000000
 H    5.181647540398    4.720001128751    0.000000000000
 C    4.066150142425    6.283711929921    0.000000000000
 C    2.749941655015    6.771071909064    0.000000000000
 H    1.913981024985    6.067999394213    0.000000000000
 C    2.532475388062    8.159342582505    0.000000000000
 H    1.509253731343    8.542876347408    0.000000000000
 C    3.614896538151    9.056828885375    0.000000000000
 H    3.436377248667   10.133854150484    0.000000000000
 C    4.926778239216    8.555132748245    0.000000000000
 H    5.778232515943    9.239535459405    0.000000000000
 C    5.156585056700    7.168821030218    0.000000000000
 H    6.179405877265    6.779865650491    0.000000000000
