27

 C   -3.565990245607   -9.000131444653    0.000000000000
 H   -3.387470245607  -10.077151444653    0.000000000000
 C   -2.483570245607   -8.102641444653    0.000000000000
 H   -1.460350245607   -8.486181444653    0.000000000000
 C   -4.877860245607   -8.498431444653    0.000000000000
 H   -5.729320245607   -9.182841444653    0.000000000000
 C   -2.701030245607   -6.714371444653    0.000000000000
 H   -1.865070245607   -6.011301444653    0.000000000000
 C   -5.107670245607   -7.112121444653    0.000000000000
 H   -6.130490245607   -6.723161444653    0.000000000000
 C   -4.017240245607   -6.227011444653    0.000000000000
 O   -4.182910245607   -4.849211444653    0.000000000000
 H   -5.132740245607   -4.663301444653    0.000000000000
RB   -0.101590245607   -0.117771444653    0.000000000000
 O    4.274638161515    4.955553395006    0.000000000000
 H    5.224463948479    4.769637831056    0.000000000000
 C    4.108966550505    6.333348632226    0.000000000000
 C    2.792758063095    6.820708611368    0.000000000000
 H    1.956797433065    6.117636096517    0.000000000000
 C    2.575291796142    8.208979284810    0.000000000000
 H    1.552070139423    8.592513049712    0.000000000000
 C    3.657712946232    9.106465587680    0.000000000000
 H    3.479193656748   10.183490852788    0.000000000000
 C    4.969594647297    8.604769450549    0.000000000000
 H    5.821048924024    9.289172161709    0.000000000000
 C    5.199401464780    7.218457732523    0.000000000000
 H    6.222222285345    6.829502352796    0.000000000000
