27

 C   -3.588490679424   -9.026216008612    0.000000000000
 H   -3.409970679424  -10.103236008612    0.000000000000
 C   -2.506070679424   -8.128726008612    0.000000000000
 H   -1.482850679424   -8.512266008612    0.000000000000
 C   -4.900360679424   -8.524516008612    0.000000000000
 H   -5.751820679424   -9.208926008612    0.000000000000
 C   -2.723530679424   -6.740456008612    0.000000000000
 H   -1.887570679424   -6.037386008612    0.000000000000
 C   -5.130170679424   -7.138206008612    0.000000000000
 H   -6.152990679424   -6.749246008612    0.000000000000
 C   -4.039740679424   -6.253096008612    0.000000000000
 O   -4.205410679424   -4.875296008612    0.000000000000
 H   -5.155240679424   -4.689386008612    0.000000000000
RB   -0.124090679424   -0.143856008612    0.000000000000
 O    4.317454569595    5.005190097310    0.000000000000
 H    5.267280356559    4.819274533360    0.000000000000
 C    4.151782958586    6.382985334530    0.000000000000
 C    2.835574471176    6.870345313673    0.000000000000
 H    1.999613841146    6.167272798821    0.000000000000
 C    2.618108204223    8.258615987114    0.000000000000
 H    1.594886547504    8.642149752017    0.000000000000
 C    3.700529354312    9.156102289984    0.000000000000
 H    3.522010064829   10.233127555092    0.000000000000
 C    5.012411055377    8.654406152854    0.000000000000
 H    5.863865332104    9.338808864014    0.000000000000
 C    5.242217872861    7.268094434827    0.000000000000
 H    6.265038693426    6.879139055100    0.000000000000
