27

 C   -3.633491547058   -9.078385136530    0.000000000000
 H   -3.454971547058  -10.155405136530    0.000000000000
 C   -2.551071547058   -8.180895136530    0.000000000000
 H   -1.527851547058   -8.564435136530    0.000000000000
 C   -4.945361547058   -8.576685136530    0.000000000000
 H   -5.796821547058   -9.261095136530    0.000000000000
 C   -2.768531547058   -6.792625136530    0.000000000000
 H   -1.932571547058   -6.089555136530    0.000000000000
 C   -5.175171547058   -7.190375136530    0.000000000000
 H   -6.197991547058   -6.801415136530    0.000000000000
 C   -4.084741547058   -6.305265136530    0.000000000000
 O   -4.250411547058   -4.927465136530    0.000000000000
 H   -5.200241547058   -4.741555136530    0.000000000000
RB   -0.169091547058   -0.196025136530    0.000000000000
 O    4.403087385757    5.104463501919    0.000000000000
 H    5.352913172720    4.918547937969    0.000000000000
 C    4.237415774747    6.482258739139    0.000000000000
 C    2.921207287337    6.969618718281    0.000000000000
 H    2.085246657307    6.266546203430    0.000000000000
 C    2.703741020384    8.357889391723    0.000000000000
 H    1.680519363665    8.741423156625    0.000000000000
 C    3.786162170474    9.255375694593    0.000000000000
 H    3.607642880990   10.332400959701    0.000000000000
 C    5.098043871538    8.753679557462    0.000000000000
 H    5.949498148265    9.438082268622    0.000000000000
 C    5.327850689022    7.367367839436    0.000000000000
 H    6.350671509587    6.978412459709    0.000000000000
