27

 C   -3.655991980874   -9.104469700490    0.000000000000
 H   -3.477471980874  -10.181489700490    0.000000000000
 C   -2.573571980874   -8.206979700490    0.000000000000
 H   -1.550351980874   -8.590519700490    0.000000000000
 C   -4.967861980874   -8.602769700490    0.000000000000
 H   -5.819321980874   -9.287179700490    0.000000000000
 C   -2.791031980874   -6.818709700490    0.000000000000
 H   -1.955071980874   -6.115639700490    0.000000000000
 C   -5.197671980874   -7.216459700490    0.000000000000
 H   -6.220491980874   -6.827499700490    0.000000000000
 C   -4.107241980874   -6.331349700490    0.000000000000
 O   -4.272911980874   -4.953549700490    0.000000000000
 H   -5.222741980874   -4.767639700490    0.000000000000
RB   -0.191591980874   -0.222109700490    0.000000000000
 O    4.445903793837    5.154100204223    0.000000000000
 H    5.395729580801    4.968184640273    0.000000000000
 C    4.280232182828    6.531895441443    0.000000000000
 C    2.964023695418    7.019255420586    0.000000000000
 H    2.128063065387    6.316182905734    0.000000000000
 C    2.746557428465    8.407526094027    0.000000000000
 H    1.723335771745    8.791059858930    0.000000000000
 C    3.828978578554    9.305012396897    0.000000000000
 H    3.650459289070   10.382037662005    0.000000000000
 C    5.140860279619    8.803316259767    0.000000000000
 H    5.992314556346    9.487718970927    0.000000000000
 C    5.370667097102    7.417004541740    0.000000000000
 H    6.393487917668    7.028049162013    0.000000000000
