27

 C   -3.678492414691   -9.130554264449    0.000000000000
 H   -3.499972414691  -10.207574264449    0.000000000000
 C   -2.596072414691   -8.233064264449    0.000000000000
 H   -1.572852414691   -8.616604264449    0.000000000000
 C   -4.990362414691   -8.628854264449    0.000000000000
 H   -5.841822414691   -9.313264264449    0.000000000000
 C   -2.813532414691   -6.844794264449    0.000000000000
 H   -1.977572414691   -6.141724264449    0.000000000000
 C   -5.220172414691   -7.242544264449    0.000000000000
 H   -6.242992414691   -6.853584264449    0.000000000000
 C   -4.129742414691   -6.357434264449    0.000000000000
 O   -4.295412414691   -4.979634264449    0.000000000000
 H   -5.245242414691   -4.793724264449    0.000000000000
RB   -0.214092414691   -0.248194264449    0.000000000000
 O    4.488720201918    5.203736906527    0.000000000000
 H    5.438545988881    5.017821342577    0.000000000000
 C    4.323048590908    6.581532143747    0.000000000000
 C    3.006840103498    7.068892122890    0.000000000000
 H    2.170879473468    6.365819608039    0.000000000000
 C    2.789373836545    8.457162796331    0.000000000000
 H    1.766152179826    8.840696561234    0.000000000000
 C    3.871794986635    9.354649099201    0.000000000000
 H    3.693275697151   10.431674364310    0.000000000000
 C    5.183676687700    8.852952962071    0.000000000000
 H    6.035130964427    9.537355673231    0.000000000000
 C    5.413483505183    7.466641244044    0.000000000000
 H    6.436304325748    7.077685864317    0.000000000000
