27

 C   -3.700992848508   -9.156638828408    0.000000000000
 H   -3.522472848508  -10.233658828408    0.000000000000
 C   -2.618572848508   -8.259148828408    0.000000000000
 H   -1.595352848508   -8.642688828408    0.000000000000
 C   -5.012862848508   -8.654938828408    0.000000000000
 H   -5.864322848508   -9.339348828408    0.000000000000
 C   -2.836032848508   -6.870878828408    0.000000000000
 H   -2.000072848508   -6.167808828408    0.000000000000
 C   -5.242672848508   -7.268628828408    0.000000000000
 H   -6.265492848508   -6.879668828408    0.000000000000
 C   -4.152242848508   -6.383518828408    0.000000000000
 O   -4.317912848508   -5.005718828408    0.000000000000
 H   -5.267742848508   -4.819808828408    0.000000000000
RB   -0.236592848508   -0.274278828408    0.000000000000
 O    4.531536609998    5.253373608832    0.000000000000
 H    5.481362396962    5.067458044882    0.000000000000
 C    4.365864998989    6.631168846052    0.000000000000
 C    3.049656511579    7.118528825194    0.000000000000
 H    2.213695881549    6.415456310343    0.000000000000
 C    2.832190244626    8.506799498636    0.000000000000
 H    1.808968587907    8.890333263539    0.000000000000
 C    3.914611394715    9.404285801506    0.000000000000
 H    3.736092105231   10.481311066614    0.000000000000
 C    5.226493095780    8.902589664375    0.000000000000
 H    6.077947372507    9.586992375535    0.000000000000
 C    5.456299913264    7.516277946349    0.000000000000
 H    6.479120733829    7.127322566622    0.000000000000
