27

 C   -3.723493282325   -9.182723392367    0.000000000000
 H   -3.544973282325  -10.259743392367    0.000000000000
 C   -2.641073282325   -8.285233392367    0.000000000000
 H   -1.617853282325   -8.668773392367    0.000000000000
 C   -5.035363282325   -8.681023392367    0.000000000000
 H   -5.886823282325   -9.365433392367    0.000000000000
 C   -2.858533282325   -6.896963392367    0.000000000000
 H   -2.022573282325   -6.193893392367    0.000000000000
 C   -5.265173282325   -7.294713392367    0.000000000000
 H   -6.287993282325   -6.905753392367    0.000000000000
 C   -4.174743282325   -6.409603392367    0.000000000000
 O   -4.340413282325   -5.031803392367    0.000000000000
 H   -5.290243282325   -4.845893392367    0.000000000000
RB   -0.259093282325   -0.300363392367    0.000000000000
 O    4.574353018079    5.303010311136    0.000000000000
 H    5.524178805043    5.117094747186    0.000000000000
 C    4.408681407070    6.680805548356    0.000000000000
 C    3.092472919660    7.168165527499    0.000000000000
 H    2.256512289629    6.465093012647    0.000000000000
 C    2.875006652707    8.556436200940    0.000000000000
 H    1.851784995987    8.939969965843    0.000000000000
 C    3.957427802796    9.453922503810    0.000000000000
 H    3.778908513312   10.530947768918    0.000000000000
 C    5.269309503861    8.952226366680    0.000000000000
 H    6.120763780588    9.636629077840    0.000000000000
 C    5.499116321344    7.565914648653    0.000000000000
 H    6.521937141909    7.176959268926    0.000000000000
