27

 C   -3.903496752859   -9.391399904041    0.000000000000
 H   -3.724976752859  -10.468419904041    0.000000000000
 C   -2.821076752859   -8.493909904041    0.000000000000
 H   -1.797856752859   -8.877449904041    0.000000000000
 C   -5.215366752859   -8.889699904041    0.000000000000
 H   -6.066826752859   -9.574109904041    0.000000000000
 C   -3.038536752859   -7.105639904041    0.000000000000
 H   -2.202576752859   -6.402569904041    0.000000000000
 C   -5.445176752859   -7.503389904041    0.000000000000
 H   -6.467996752859   -7.114429904041    0.000000000000
 C   -4.354746752859   -6.618279904041    0.000000000000
 O   -4.520416752859   -5.240479904041    0.000000000000
 H   -5.470246752859   -5.054569904041    0.000000000000
RB   -0.439096752859   -0.509039904041    0.000000000000
 O    4.916884282724    5.700103929571    0.000000000000
 H    5.866710069687    5.514188365621    0.000000000000
 C    4.751212671714    7.077899166791    0.000000000000
 C    3.435004184304    7.565259145933    0.000000000000
 H    2.599043554274    6.862186631082    0.000000000000
 C    3.217537917351    8.953529819375    0.000000000000
 H    2.194316260632    9.337063584278    0.000000000000
 C    4.299959067441    9.851016122245    0.000000000000
 H    4.121439777957   10.928041387353    0.000000000000
 C    5.611840768505    9.349319985114    0.000000000000
 H    6.463295045232   10.033722696275    0.000000000000
 C    5.841647585989    7.963008267088    0.000000000000
 H    6.864468406554    7.574052887361    0.000000000000
