27

 C   -3.925997186676   -9.417484468000    0.000000000000
 H   -3.747477186676  -10.494504468000    0.000000000000
 C   -2.843577186676   -8.519994468000    0.000000000000
 H   -1.820357186676   -8.903534468000    0.000000000000
 C   -5.237867186676   -8.915784468000    0.000000000000
 H   -6.089327186676   -9.600194468000    0.000000000000
 C   -3.061037186676   -7.131724468000    0.000000000000
 H   -2.225077186676   -6.428654468000    0.000000000000
 C   -5.467677186676   -7.529474468000    0.000000000000
 H   -6.490497186676   -7.140514468000    0.000000000000
 C   -4.377247186676   -6.644364468000    0.000000000000
 O   -4.542917186676   -5.266564468000    0.000000000000
 H   -5.492747186676   -5.080654468000    0.000000000000
RB   -0.461597186676   -0.535124468000    0.000000000000
 O    4.959700690804    5.749740631875    0.000000000000
 H    5.909526477768    5.563825067925    0.000000000000
 C    4.794029079795    7.127535869095    0.000000000000
 C    3.477820592385    7.614895848238    0.000000000000
 H    2.641859962354    6.911823333387    0.000000000000
 C    3.260354325432    9.003166521679    0.000000000000
 H    2.237132668712    9.386700286582    0.000000000000
 C    4.342775475521    9.900652824549    0.000000000000
 H    4.164256186037   10.977678089658    0.000000000000
 C    5.654657176586    9.398956687419    0.000000000000
 H    6.506111453313   10.083359398579    0.000000000000
 C    5.884463994069    8.012644969392    0.000000000000
 H    6.907284814635    7.623689589665    0.000000000000
