27

 C   -3.948497620492   -9.443569031959    0.000000000000
 H   -3.769977620492  -10.520589031959    0.000000000000
 C   -2.866077620492   -8.546079031959    0.000000000000
 H   -1.842857620492   -8.929619031959    0.000000000000
 C   -5.260367620492   -8.941869031959    0.000000000000
 H   -6.111827620492   -9.626279031959    0.000000000000
 C   -3.083537620492   -7.157809031959    0.000000000000
 H   -2.247577620492   -6.454739031959    0.000000000000
 C   -5.490177620492   -7.555559031959    0.000000000000
 H   -6.512997620492   -7.166599031959    0.000000000000
 C   -4.399747620492   -6.670449031959    0.000000000000
 O   -4.565417620492   -5.292649031959    0.000000000000
 H   -5.515247620492   -5.106739031959    0.000000000000
RB   -0.484097620492   -0.561209031959    0.000000000000
 O    5.002517098885    5.799377334180    0.000000000000
 H    5.952342885848    5.613461770229    0.000000000000
 C    4.836845487875    7.177172571399    0.000000000000
 C    3.520637000465    7.664532550542    0.000000000000
 H    2.684676370435    6.961460035691    0.000000000000
 C    3.303170733512    9.052803223984    0.000000000000
 H    2.279949076793    9.436336988886    0.000000000000
 C    4.385591883602    9.950289526853    0.000000000000
 H    4.207072594118   11.027314791962    0.000000000000
 C    5.697473584667    9.448593389723    0.000000000000
 H    6.548927861394   10.132996100883    0.000000000000
 C    5.927280402150    8.062281671696    0.000000000000
 H    6.950101222715    7.673326291970    0.000000000000
