27

 C   -3.993498488126   -9.495738159878    0.000000000000
 H   -3.814978488126  -10.572758159878    0.000000000000
 C   -2.911078488126   -8.598248159878    0.000000000000
 H   -1.887858488126   -8.981788159878    0.000000000000
 C   -5.305368488126   -8.994038159878    0.000000000000
 H   -6.156828488126   -9.678448159878    0.000000000000
 C   -3.128538488126   -7.209978159878    0.000000000000
 H   -2.292578488126   -6.506908159878    0.000000000000
 C   -5.535178488126   -7.607728159878    0.000000000000
 H   -6.557998488126   -7.218768159878    0.000000000000
 C   -4.444748488126   -6.722618159878    0.000000000000
 O   -4.610418488126   -5.344818159878    0.000000000000
 H   -5.560248488126   -5.158908159878    0.000000000000
RB   -0.529098488126   -0.613378159878    0.000000000000
 O    5.088149915046    5.898650738788    0.000000000000
 H    6.037975702010    5.712735174838    0.000000000000
 C    4.922478304037    7.276445976008    0.000000000000
 C    3.606269816627    7.763805955151    0.000000000000
 H    2.770309186596    7.060733440300    0.000000000000
 C    3.388803549674    9.152076628592    0.000000000000
 H    2.365581892954    9.535610393495    0.000000000000
 C    4.471224699763   10.049562931462    0.000000000000
 H    4.292705410279   11.126588196571    0.000000000000
 C    5.783106400828    9.547866794332    0.000000000000
 H    6.634560677555   10.232269505492    0.000000000000
 C    6.012913218311    8.161555076305    0.000000000000
 H    7.035734038876    7.772599696578    0.000000000000
