27

 C   -4.128501091027   -9.652245543633    0.000000000000
 H   -3.949981091027  -10.729265543633    0.000000000000
 C   -3.046081091027   -8.754755543633    0.000000000000
 H   -2.022861091027   -9.138295543633    0.000000000000
 C   -5.440371091027   -9.150545543633    0.000000000000
 H   -6.291831091027   -9.834955543633    0.000000000000
 C   -3.263541091027   -7.366485543633    0.000000000000
 H   -2.427581091027   -6.663415543633    0.000000000000
 C   -5.670181091027   -7.764235543633    0.000000000000
 H   -6.693001091027   -7.375275543633    0.000000000000
 C   -4.579751091027   -6.879125543633    0.000000000000
 O   -4.745421091027   -5.501325543633    0.000000000000
 H   -5.695251091027   -5.315415543633    0.000000000000
RB   -0.664101091027   -0.769885543633    0.000000000000
 O    5.345048363529    6.196470952614    0.000000000000
 H    6.294874150493    6.010555388664    0.000000000000
 C    5.179376752520    7.574266189834    0.000000000000
 C    3.863168265110    8.061626168977    0.000000000000
 H    3.027207635080    7.358553654126    0.000000000000
 C    3.645701998157    9.449896842418    0.000000000000
 H    2.622480341438    9.833430607321    0.000000000000
 C    4.728123148246   10.347383145288    0.000000000000
 H    4.549603858762   11.424408410397    0.000000000000
 C    6.040004849311    9.845687008158    0.000000000000
 H    6.891459126038   10.530089719318    0.000000000000
 C    6.269811666795    8.459375290131    0.000000000000
 H    7.292632487360    8.070419910404    0.000000000000
