27

 C   -4.151001524843   -9.678330107592    0.000000000000
 H   -3.972481524843  -10.755350107592    0.000000000000
 C   -3.068581524843   -8.780840107592    0.000000000000
 H   -2.045361524843   -9.164380107592    0.000000000000
 C   -5.462871524843   -9.176630107592    0.000000000000
 H   -6.314331524843   -9.861040107592    0.000000000000
 C   -3.286041524843   -7.392570107592    0.000000000000
 H   -2.450081524843   -6.689500107592    0.000000000000
 C   -5.692681524843   -7.790320107592    0.000000000000
 H   -6.715501524843   -7.401360107592    0.000000000000
 C   -4.602251524843   -6.905210107592    0.000000000000
 O   -4.767921524843   -5.527410107592    0.000000000000
 H   -5.717751524843   -5.341500107592    0.000000000000
RB   -0.686601524843   -0.795970107592    0.000000000000
 O    5.387864771610    6.246107654919    0.000000000000
 H    6.337690558574    6.060192090969    0.000000000000
 C    5.222193160601    7.623902892139    0.000000000000
 C    3.905984673191    8.111262871281    0.000000000000
 H    3.070024043160    7.408190356430    0.000000000000
 C    3.688518406238    9.499533544723    0.000000000000
 H    2.665296749518    9.883067309625    0.000000000000
 C    4.770939556327   10.397019847593    0.000000000000
 H    4.592420266843   11.474045112701    0.000000000000
 C    6.082821257392    9.895323710462    0.000000000000
 H    6.934275534119   10.579726421622    0.000000000000
 C    6.312628074875    8.509011992436    0.000000000000
 H    7.335448895440    8.120056612709    0.000000000000
