27

 C   -4.173501958660   -9.704414671551    0.000000000000
 H   -3.994981958660  -10.781434671551    0.000000000000
 C   -3.091081958660   -8.806924671551    0.000000000000
 H   -2.067861958660   -9.190464671551    0.000000000000
 C   -5.485371958660   -9.202714671551    0.000000000000
 H   -6.336831958660   -9.887124671551    0.000000000000
 C   -3.308541958660   -7.418654671551    0.000000000000
 H   -2.472581958660   -6.715584671551    0.000000000000
 C   -5.715181958660   -7.816404671551    0.000000000000
 H   -6.738001958660   -7.427444671551    0.000000000000
 C   -4.624751958660   -6.931294671551    0.000000000000
 O   -4.790421958660   -5.553494671551    0.000000000000
 H   -5.740251958660   -5.367584671551    0.000000000000
RB   -0.709101958660   -0.822054671551    0.000000000000
 O    5.430681179691    6.295744357223    0.000000000000
 H    6.380506966654    6.109828793273    0.000000000000
 C    5.265009568681    7.673539594443    0.000000000000
 C    3.948801081271    8.160899573586    0.000000000000
 H    3.112840451241    7.457827058734    0.000000000000
 C    3.731334814318    9.549170247027    0.000000000000
 H    2.708113157599    9.932704011930    0.000000000000
 C    4.813755964408   10.446656549897    0.000000000000
 H    4.635236674924   11.523681815005    0.000000000000
 C    6.125637665472    9.944960412767    0.000000000000
 H    6.977091942199   10.629363123927    0.000000000000
 C    6.355444482956    8.558648694740    0.000000000000
 H    7.378265303521    8.169693315013    0.000000000000
