27

 C   -4.196002392477   -9.730499235511    0.000000000000
 H   -4.017482392477  -10.807519235511    0.000000000000
 C   -3.113582392477   -8.833009235511    0.000000000000
 H   -2.090362392477   -9.216549235511    0.000000000000
 C   -5.507872392477   -9.228799235511    0.000000000000
 H   -6.359332392477   -9.913209235511    0.000000000000
 C   -3.331042392477   -7.444739235511    0.000000000000
 H   -2.495082392477   -6.741669235511    0.000000000000
 C   -5.737682392477   -7.842489235511    0.000000000000
 H   -6.760502392477   -7.453529235511    0.000000000000
 C   -4.647252392477   -6.957379235511    0.000000000000
 O   -4.812922392477   -5.579579235511    0.000000000000
 H   -5.762752392477   -5.393669235511    0.000000000000
RB   -0.731602392477   -0.848139235511    0.000000000000
 O    5.473497587771    6.345381059528    0.000000000000
 H    6.423323374735    6.159465495577    0.000000000000
 C    5.307825976762    7.723176296747    0.000000000000
 C    3.991617489352    8.210536275890    0.000000000000
 H    3.155656859321    7.507463761039    0.000000000000
 C    3.774151222399    9.598806949331    0.000000000000
 H    2.750929565679    9.982340714234    0.000000000000
 C    4.856572372488   10.496293252201    0.000000000000
 H    4.678053083004   11.573318517310    0.000000000000
 C    6.168454073553    9.994597115071    0.000000000000
 H    7.019908350280   10.678999826231    0.000000000000
 C    6.398260891036    8.608285397044    0.000000000000
 H    7.421081711602    8.219330017317    0.000000000000
