16

 N   -1.133181523414    1.464536573923    0.040226947450
 C    0.237433888995    1.664011251764    0.036595313074
 H    0.559218185333    2.707756182640    0.058014128767
 C   -1.732896792843    0.211421414370    0.015696956794
 O   -2.950670824375    0.044478708303    0.016693037568
 N   -0.807590777232   -0.825356195472   -0.011959580195
 H   -1.202164485095   -1.763870505321   -0.032468453593
 C    0.598139601163   -0.739317483154   -0.020407630986
 O    1.286460273591   -1.762934704956   -0.048515569539
 C    1.127908782228    0.629071385580    0.008198738148
 C    2.620198675834    0.812929711042    0.003367928322
 H    2.881746304914    1.881357587910    0.026022096469
 H    3.060342989424    0.354609491620   -0.895740323124
 H    3.071203882543    0.314443225736    0.875304765235
 H   -1.775487746743    2.248789612097    0.060122365740
LI    1.844327751159   -2.592552033617   -0.071296382913
