16

 N   -1.139064631168    1.473285476368    0.040467187266
 C    0.231550781241    1.672760154209    0.036835552890
 H    0.553335077579    2.716505085085    0.058254368583
 C   -1.738779900597    0.220170316815    0.015937196610
 O   -2.956553932129    0.053227610748    0.016933277384
 N   -0.813473884986   -0.816607293027   -0.011719340379
 H   -1.208047592849   -1.755121602876   -0.032228213777
 C    0.592256493409   -0.730568580709   -0.020167391170
 O    1.280577165837   -1.754185802511   -0.048275329723
 C    1.122025674474    0.637820288025    0.008438977964
 C    2.614315568080    0.821678613487    0.003608168138
 H    2.875863197160    1.890106490355    0.026262336285
 H    3.054459881670    0.363358394065   -0.895500083308
 H    3.065320774789    0.323192128181    0.875545005051
 H   -1.781370854497    2.257538514542    0.060362605556
LI    1.950018138918   -2.749726596903   -0.075612305772
