16

 N   -1.144947738922    1.482034378814    0.040707427081
 C    0.225667673487    1.681509056655    0.037075792705
 H    0.547451969825    2.725253987531    0.058494608398
 C   -1.744663008351    0.228919219261    0.016177436425
 O   -2.962437039883    0.061976513194    0.017173517199
 N   -0.819356992740   -0.807858390581   -0.011479100564
 H   -1.213930700603   -1.746372700430   -0.031987973962
 C    0.586373385655   -0.721819678263   -0.019927151355
 O    1.274694058083   -1.745436900065   -0.048035089908
 C    1.116142566720    0.646569190471    0.008679217779
 C    2.608432460326    0.830427515933    0.003848407953
 H    2.869980089406    1.898855392801    0.026502576100
 H    3.048576773916    0.372107296511   -0.895259843493
 H    3.059437667035    0.331941030627    0.875785244866
 H   -1.787253962251    2.266287416988    0.060602845371
LI    2.055708526678   -2.906901160190   -0.079928228632
