16

 N   -1.153772400552    1.495157732483    0.041067786804
 C    0.216843011857    1.694632410324    0.037436152428
 H    0.538627308195    2.738377341200    0.058854968121
 C   -1.753487669981    0.242042572930    0.016537796148
 O   -2.971261701513    0.075099866863    0.017533876922
 N   -0.828181654370   -0.794735036912   -0.011118740841
 H   -1.222755362233   -1.733249346761   -0.031627614239
 C    0.577548724025   -0.708696324594   -0.019566791632
 O    1.265869396453   -1.732313546396   -0.047674730185
 C    1.107317905090    0.659692544140    0.009039577502
 C    2.599607798696    0.843550869602    0.004208767676
 H    2.861155427776    1.911978746470    0.026862935823
 H    3.039752112286    0.385230650180   -0.894899483770
 H    3.050613005405    0.345064384296    0.876145604589
 H   -1.796078623881    2.279410770657    0.060963205094
LI    2.214244108318   -3.142663005119   -0.086402112921
