16

 N   -1.156713954429    1.499532183706    0.041187906712
 C    0.213901457980    1.699006861547    0.037556272336
 H    0.535685754318    2.742751792423    0.058975088029
 C   -1.756429223858    0.246417024153    0.016657916056
 O   -2.974203255390    0.079474318086    0.017653996830
 N   -0.831123208247   -0.790360585689   -0.010998620933
 H   -1.225696916110   -1.728874895538   -0.031507494331
 C    0.574607170148   -0.704321873371   -0.019446671724
 O    1.262927842576   -1.727939095173   -0.047554610277
 C    1.104376351213    0.664066995363    0.009159697410
 C    2.596666244819    0.847925320825    0.004328887584
 H    2.858213873899    1.916353197693    0.026983055731
 H    3.036810558409    0.389605101403   -0.894779363862
 H    3.047671451528    0.349438835519    0.876265724497
 H   -1.799020177758    2.283785221880    0.061083325002
LI    2.267089302198   -3.221250286763   -0.088560074351
