16

 N   -1.397921372334    1.858237183982    0.051037739141
 C   -0.027305959925    2.057711861823    0.047406104765
 H    0.294478336413    3.101456792699    0.068824920458
 C   -1.997636641763    0.605122024429    0.026507748485
 O   -3.215410673295    0.438179318362    0.027503829259
 N   -1.072330626152   -0.431655585413   -0.001148788504
 H   -1.466904334015   -1.370169895262   -0.021657661902
 C    0.333399752243   -0.345616873095   -0.009596839295
 O    1.021720424671   -1.369234094897   -0.037704777848
 C    0.863168933308    1.022771995639    0.019009529839
 C    2.355458826914    1.206630321101    0.014178720013
 H    2.617006455994    2.275058197969    0.036832888160
 H    2.795603140504    0.748310101679   -0.884929531433
 H    2.806464033623    0.708143835795    0.886115556926
 H   -2.040227595663    2.642490222156    0.070933157431
LI    6.600395200349   -9.665407381504   -0.265512911590
