16

 N   -1.165538616060    1.512655537374    0.041548266435
 C    0.205076796349    1.712130215215    0.037916632059
 H    0.526861092687    2.755875146091    0.059335447752
 C   -1.765253885489    0.259540377821    0.017018275779
 O   -2.983027917021    0.092597671754    0.018014356553
 N   -0.839947869878   -0.777237232021   -0.010638261210
 H   -1.234521577741   -1.715751541870   -0.031147134608
 C    0.565782508517   -0.691198519703   -0.019086312001
 O    1.254103180945   -1.714815741505   -0.047194250554
 C    1.095551689582    0.677190349031    0.009520057133
 C    2.587841583188    0.861048674493    0.004689247307
 H    2.849389212268    1.929476551361    0.027343415454
 H    3.027985896778    0.402728455071   -0.894419004139
 H    3.038846789897    0.362562189187    0.876626084220
 H   -1.807844839389    2.296908575548    0.061443684725
LI    2.425624883838   -3.457012131692   -0.095033958640
