16

 N   -1.174363277691    1.525778891043    0.041908626158
 C    0.196252134718    1.725253568884    0.038276991782
 H    0.518036431056    2.768998499760    0.059695807475
 C   -1.774078547120    0.272663731490    0.017378635502
 O   -2.991852578652    0.105721025423    0.018374716276
 N   -0.848772531509   -0.764113878352   -0.010277901487
 H   -1.243346239372   -1.702628188201   -0.030786774885
 C    0.556957846886   -0.678075166034   -0.018725952278
 O    1.245278519314   -1.701692387836   -0.046833890831
 C    1.086727027951    0.690313702700    0.009880416856
 C    2.579016921557    0.874172028162    0.005049607030
 H    2.840564550637    1.942599905030    0.027703775177
 H    3.019161235147    0.415851808740   -0.894058644416
 H    3.030022128266    0.375685542856    0.876986443943
 H   -1.816669501020    2.310031929217    0.061804044448
LI    2.584160465477   -3.692773976622   -0.101507842929
