16

 N   -1.189071047075    1.547651147157    0.042509225696
 C    0.181544365334    1.747125824998    0.038877591320
 H    0.503328661672    2.790870755874    0.060296407013
 C   -1.788786316504    0.294535987604    0.017979235040
 O   -3.006560348036    0.127593281537    0.018975315814
 N   -0.863480300893   -0.742241622238   -0.009677301949
 H   -1.258054008756   -1.680755932087   -0.030186175347
 C    0.542250077502   -0.656202909920   -0.018125352740
 O    1.230570749930   -1.679820131722   -0.046233291293
 C    1.072019258567    0.712185958814    0.010481016394
 C    2.564309152173    0.896044284276    0.005650206568
 H    2.825856781253    1.964472161144    0.028304374715
 H    3.004453465763    0.437724064854   -0.893458044878
 H    3.015314358882    0.397557798970    0.877587043481
 H   -1.831377270404    2.331904185331    0.062404643986
LI    2.848386434877   -4.085710384838   -0.112297650078
