16

 N   -1.194954154829    1.556400049603    0.042749465512
 C    0.175661257580    1.755874727444    0.039117831136
 H    0.497445553918    2.799619658320    0.060536646829
 C   -1.794669424258    0.303284890050    0.018219474856
 O   -3.012443455790    0.136342183983    0.019215555630
 N   -0.869363408647   -0.733492719792   -0.009437062133
 H   -1.263937116510   -1.672007029641   -0.029945935531
 C    0.536366969748   -0.647454007474   -0.017885112924
 O    1.224687642176   -1.671071229276   -0.045993051477
 C    1.066136150813    0.720934861260    0.010721256210
 C    2.558426044419    0.904793186722    0.005890446384
 H    2.819973673499    1.973221063590    0.028544614531
 H    2.998570358009    0.446472967300   -0.893217805062
 H    3.009431251128    0.406306701416    0.877827283297
 H   -1.837260378158    2.340653087777    0.062644883802
LI    2.954076822636   -4.242884948124   -0.116613572937
