16

 N   -1.212603478090    1.582646756941    0.043470184958
 C    0.158011934319    1.782121434782    0.039838550582
 H    0.479796230657    2.825866365658    0.061257366275
 C   -1.812318747519    0.329531597388    0.018940194302
 O   -3.030092779051    0.162588891321    0.019936275076
 N   -0.887012731908   -0.707246012454   -0.008716342687
 H   -1.281586439771   -1.645760322303   -0.029225216085
 C    0.518717646487   -0.621207300136   -0.017164393478
 O    1.207038318915   -1.644824521938   -0.045272332031
 C    1.048486827552    0.747181568598    0.011441975656
 C    2.540776721158    0.931039894060    0.006611165830
 H    2.802324350238    1.999467770928    0.029265333977
 H    2.980921034748    0.472719674638   -0.892497085616
 H    2.991781927867    0.432553408754    0.878548002743
 H   -1.854909701419    2.366899795115    0.063365603248
LI    3.271147985916   -4.714408637983   -0.129561341516
