16

 N   -1.230252801351    1.608893464278    0.044190904404
 C    0.140362611058    1.808368142119    0.040559270028
 H    0.462146907396    2.852113072995    0.061978085721
 C   -1.829968070780    0.355778304725    0.019660913748
 O   -3.047742102312    0.188835598658    0.020656994522
 N   -0.904662055169   -0.680999305117   -0.007995623241
 H   -1.299235763032   -1.619513614966   -0.028504496639
 C    0.501068323226   -0.594960592799   -0.016443674032
 O    1.189388995654   -1.618577814601   -0.044551612585
 C    1.030837504291    0.773428275935    0.012162695102
 C    2.523127397897    0.957286601397    0.007331885276
 H    2.784675026977    2.025714478265    0.029986053423
 H    2.963271711487    0.498966381975   -0.891776366170
 H    2.974132604606    0.458800116091    0.879268722189
 H   -1.872559024680    2.393146502452    0.064086322694
LI    3.588219149195   -5.185932327842   -0.142509110094
