16

 N   -1.233194355228    1.613267915501    0.044311024311
 C    0.137421057181    1.812742593342    0.040679389935
 H    0.459205353519    2.856487524218    0.062098205628
 C   -1.832909624657    0.360152755948    0.019781033655
 O   -3.050683656189    0.193210049881    0.020777114429
 N   -0.907603609046   -0.676624853894   -0.007875503334
 H   -1.302177316909   -1.615139163743   -0.028384376732
 C    0.498126769349   -0.590586141576   -0.016323554125
 O    1.186447441777   -1.614203363378   -0.044431492678
 C    1.027895950414    0.777802727158    0.012282815009
 C    2.520185844020    0.961661052620    0.007452005183
 H    2.781733473100    2.030088929488    0.030106173330
 H    2.960330157610    0.503340833198   -0.891656246263
 H    2.971191050729    0.463174567314    0.879388842096
 H   -1.875500578557    2.397520953675    0.064206442601
LI    3.641064343075   -5.264519609485   -0.144667071524
