16

 N   -1.236135909105    1.617642366724    0.044431144219
 C    0.134479503304    1.817117044565    0.040799509843
 H    0.456263799642    2.860861975441    0.062218325536
 C   -1.835851178534    0.364527207171    0.019901153563
 O   -3.053625210066    0.197584501104    0.020897234337
 N   -0.910545162923   -0.672250402671   -0.007755383426
 H   -1.305118870786   -1.610764712520   -0.028264256824
 C    0.495185215472   -0.586211690353   -0.016203434217
 O    1.183505887900   -1.609828912155   -0.044311372770
 C    1.024954396537    0.782177178381    0.012402934917
 C    2.517244290143    0.966035503843    0.007572125091
 H    2.778791919223    2.034463380711    0.030226293238
 H    2.957388603733    0.507715284421   -0.891536126355
 H    2.968249496852    0.467549018537    0.879508962004
 H   -1.878442132434    2.401895404898    0.064326562509
LI    3.693909536955   -5.343106891129   -0.146825032954
