16

 N   -1.244960570736    1.630765720392    0.044791503942
 C    0.125654841673    1.830240398233    0.041159869566
 H    0.447439138011    2.873985329109    0.062578685259
 C   -1.844675840165    0.377650560839    0.020261513286
 O   -3.062449871697    0.210707854772    0.021257594060
 N   -0.919369824554   -0.659127049003   -0.007395023703
 H   -1.313943532417   -1.597641358852   -0.027903897101
 C    0.486360553841   -0.573088336685   -0.015843074494
 O    1.174681226269   -1.596705558487   -0.043951013047
 C    1.016129734906    0.795300532049    0.012763294640
 C    2.508419628512    0.979158857511    0.007932484814
 H    2.769967257592    2.047586734379    0.030586652961
 H    2.948563942102    0.520838638089   -0.891175766632
 H    2.959424835221    0.480672372205    0.879869321727
 H   -1.887266794065    2.415018758566    0.064686922232
LI    3.852445118595   -5.578868736058   -0.153298917243
