16

 N   -1.250843678490    1.639514622838    0.045031743757
 C    0.119771733919    1.838989300679    0.041400109381
 H    0.441556030257    2.882734231555    0.062818925074
 C   -1.850558947919    0.386399463285    0.020501753101
 O   -3.068332979451    0.219456757218    0.021497833875
 N   -0.925252932308   -0.650378146557   -0.007154783888
 H   -1.319826640171   -1.588892456406   -0.027663657286
 C    0.480477446087   -0.564339434239   -0.015602834679
 O    1.168798118515   -1.587956656041   -0.043710773232
 C    1.010246627152    0.804049434495    0.013003534455
 C    2.502536520758    0.987907759957    0.008172724629
 H    2.764084149838    2.056335636825    0.030826892776
 H    2.942680834348    0.529587540535   -0.890935526817
 H    2.953541727467    0.489421274651    0.880109561542
 H   -1.893149901819    2.423767661012    0.064927162047
LI    3.958135506355   -5.736043299345   -0.157614840103
