16

 N   -1.259668340120    1.652637976507    0.045392103480
 C    0.110947072289    1.852112654348    0.041760469104
 H    0.432731368627    2.895857585224    0.063179284797
 C   -1.859383609549    0.399522816954    0.020862112824
 O   -3.077157641081    0.232580110887    0.021858193598
 N   -0.934077593938   -0.637254792888   -0.006794424165
 H   -1.328651301801   -1.575769102737   -0.027303297563
 C    0.471652784457   -0.551216080570   -0.015242474956
 O    1.159973456885   -1.574833302372   -0.043350413509
 C    1.001421965522    0.817172788164    0.013363894178
 C    2.493711859128    1.001031113626    0.008533084352
 H    2.755259488208    2.069458990494    0.031187252499
 H    2.933856172718    0.542710894204   -0.890575167094
 H    2.944717065837    0.502544628320    0.880469921265
 H   -1.901974563449    2.436891014681    0.065287521770
LI    4.116671087994   -5.971805144274   -0.164088724392
