16

 N   -1.265551447874    1.661386878952    0.045632343296
 C    0.105063964535    1.860861556793    0.042000708920
 H    0.426848260873    2.904606487669    0.063419524613
 C   -1.865266717303    0.408271719399    0.021102352640
 O   -3.083040748835    0.241329013332    0.022098433414
 N   -0.939960701692   -0.628505890443   -0.006554184349
 H   -1.334534409555   -1.567020200292   -0.027063057747
 C    0.465769676703   -0.542467178125   -0.015002235140
 O    1.154090349131   -1.566084399927   -0.043110173693
 C    0.995538857768    0.825921690609    0.013604133994
 C    2.487828751374    1.009780016071    0.008773324168
 H    2.749376380454    2.078207892939    0.031427492315
 H    2.927973064964    0.551459796649   -0.890334927278
 H    2.938833958083    0.511293530765    0.880710161081
 H   -1.907857671203    2.445639917126    0.065527761586
LI    4.222361475754   -6.128979707560   -0.168404647251
