16

 N   -1.271434555628    1.670135781398    0.045872583111
 C    0.099180856781    1.869610459239    0.042240948735
 H    0.420965153119    2.913355390115    0.063659764428
 C   -1.871149825057    0.417020621845    0.021342592455
 O   -3.088923856589    0.250077915778    0.022338673229
 N   -0.945843809446   -0.619756987997   -0.006313944534
 H   -1.340417517309   -1.558271297846   -0.026822817932
 C    0.459886568949   -0.533718275679   -0.014761995325
 O    1.148207241377   -1.557335497481   -0.042869933878
 C    0.989655750014    0.834670593055    0.013844373809
 C    2.481945643620    1.018528918517    0.009013563983
 H    2.743493272700    2.086956795385    0.031667732130
 H    2.922089957210    0.560208699095   -0.890094687463
 H    2.932950850329    0.520042433211    0.880950400896
 H   -1.913740778957    2.454388819572    0.065768001401
LI    4.328051863514   -6.286154270847   -0.172720570111
