16

 N   -1.274376109505    1.674510232621    0.045992703019
 C    0.096239302904    1.873984910462    0.042361068643
 H    0.418023599242    2.917729841338    0.063779884336
 C   -1.874091378934    0.421395073068    0.021462712363
 O   -3.091865410466    0.254452367001    0.022458793137
 N   -0.948785363323   -0.615382536774   -0.006193824626
 H   -1.343359071186   -1.553896846623   -0.026702698024
 C    0.456945015072   -0.529343824456   -0.014641875417
 O    1.145265687500   -1.552961046258   -0.042749813970
 C    0.986714196137    0.839045044278    0.013964493717
 C    2.479004089743    1.022903369740    0.009133683891
 H    2.740551718823    2.091331246608    0.031787852038
 H    2.919148403333    0.564583150318   -0.889974567555
 H    2.930009296452    0.524416884434    0.881070520804
 H   -1.916682332834    2.458763270795    0.065888121309
LI    4.380897057394   -6.364741552490   -0.174878531541
