16

 N   -1.280259217258    1.683259135067    0.046232942834
 C    0.090356195151    1.882733812908    0.042601308458
 H    0.412140491489    2.926478743784    0.064020124151
 C   -1.879974486687    0.430143975514    0.021702952178
 O   -3.097748518219    0.263201269447    0.022699032952
 N   -0.954668471076   -0.606633634328   -0.005953584811
 H   -1.349242178939   -1.545147944177   -0.026462458209
 C    0.451061907319   -0.520594922010   -0.014401635602
 O    1.139382579747   -1.544212143812   -0.042509574155
 C    0.980831088384    0.847793946724    0.014204733532
 C    2.473120981990    1.031652272186    0.009373923706
 H    2.734668611070    2.100080149054    0.032028091853
 H    2.913265295580    0.573332052764   -0.889734327740
 H    2.924126188699    0.533165786880    0.881310760619
 H   -1.922565440587    2.467512173241    0.066128361124
LI    4.486587445153   -6.521916115776   -0.179194454400
