16

 N   -1.289083878889    1.696382488735    0.046593302557
 C    0.081531533520    1.895857166576    0.042961668181
 H    0.403315829858    2.939602097452    0.064380483874
 C   -1.888799148318    0.443267329182    0.022063311901
 O   -3.106573179850    0.276324623115    0.023059392675
 N   -0.963493132707   -0.593510280660   -0.005593225088
 H   -1.358066840570   -1.532024590509   -0.026102098486
 C    0.442237245688   -0.507471568342   -0.014041275879
 O    1.130557918116   -1.531088790144   -0.042149214432
 C    0.972006426753    0.860917300392    0.014565093255
 C    2.464296320359    1.044775625854    0.009734283429
 H    2.725843949439    2.113203502722    0.032388451576
 H    2.904440633949    0.586455406432   -0.889373968017
 H    2.915301527068    0.546289140548    0.881671120342
 H   -1.931390102218    2.480635526909    0.066488720847
LI    4.645123026793   -6.757677960706   -0.185668338689
