16

 N   -1.294966986643    1.705131391181    0.046833542373
 C    0.075648425766    1.904606069022    0.043201907997
 H    0.397432722104    2.948350999898    0.064620723690
 C   -1.894682256072    0.452016231628    0.022303551717
 O   -3.112456287604    0.285073525561    0.023299632491
 N   -0.969376240461   -0.584761378214   -0.005352985272
 H   -1.363949948324   -1.523275688063   -0.025861858670
 C    0.436354137934   -0.498722665896   -0.013801036063
 O    1.124674810362   -1.522339887698   -0.041908974616
 C    0.966123318999    0.869666202838    0.014805333071
 C    2.458413212605    1.053524528300    0.009974523245
 H    2.719960841685    2.121952405168    0.032628691392
 H    2.898557526195    0.595204308878   -0.889133728201
 H    2.909418419314    0.555038042994    0.881911360158
 H   -1.937273209972    2.489384429355    0.066728960663
LI    4.750813414553   -6.914852523992   -0.189984261549
