16

 N   -1.309674756027    1.727003647296    0.047434141911
 C    0.060940656382    1.926478325137    0.043802507535
 H    0.382724952720    2.970223256013    0.065221323228
 C   -1.909390025456    0.473888487743    0.022904151255
 O   -3.127164056988    0.306945781676    0.023900232029
 N   -0.984084009845   -0.562889122099   -0.004752385734
 H   -1.378657717708   -1.501403431948   -0.025261259132
 C    0.421646368550   -0.476850409781   -0.013200436525
 O    1.109967040978   -1.500467631583   -0.041308375078
 C    0.951415549615    0.891538458953    0.015405932609
 C    2.443705443221    1.075396784415    0.010575122783
 H    2.705253072301    2.143824661283    0.033229290930
 H    2.883849756811    0.617076564993   -0.888533128663
 H    2.894710649930    0.576910299109    0.882511959696
 H   -1.951980979356    2.511256685470    0.067329560201
LI    5.015039383952   -7.307788932208   -0.200774068698
