16

 N   -1.312616309904    1.731378098519    0.047554261819
 C    0.057999102505    1.930852776360    0.043922627443
 H    0.379783398843    2.974597707236    0.065341443136
 C   -1.912331579333    0.478262938966    0.023024271163
 O   -3.130105610865    0.311320232899    0.024020351937
 N   -0.987025563722   -0.558514670876   -0.004632265826
 H   -1.381599271585   -1.497028980725   -0.025141139224
 C    0.418704814673   -0.472475958558   -0.013080316617
 O    1.107025487101   -1.496093180360   -0.041188255170
 C    0.948473995738    0.895912910176    0.015526052517
 C    2.440763889344    1.079771235638    0.010695242691
 H    2.702311518424    2.148199112506    0.033349410838
 H    2.880908202934    0.621451016216   -0.888413008755
 H    2.891769096053    0.581284750332    0.882632079604
 H   -1.954922533233    2.515631136693    0.067449680109
LI    5.067884577832   -7.386376213851   -0.202932030127
