16

 N   -1.327324079289    1.753250354633    0.048154861357
 C    0.043291333120    1.952725032474    0.044523226981
 H    0.365075629458    2.996469963350    0.065942042674
 C   -1.927039348718    0.500135195080    0.023624870701
 O   -3.144813380250    0.333192489013    0.024620951475
 N   -1.001733333107   -0.536642414762   -0.004031666288
 H   -1.396307040970   -1.475156724611   -0.024540539686
 C    0.403997045288   -0.450603702444   -0.012479717079
 O    1.092317717716   -1.474220924246   -0.040587655632
 C    0.933766226353    0.917785166290    0.016126652055
 C    2.426056119959    1.101643491752    0.011295842229
 H    2.687603749039    2.170071368620    0.033950010376
 H    2.866200433549    0.643323272330   -0.887812409217
 H    2.877061326668    0.603157006446    0.883232679142
 H   -1.969630302618    2.537503392807    0.068050279647
LI    5.332110547232   -7.779312622067   -0.213721837276
