16

 N   -1.336148740919    1.766373708302    0.048515221080
 C    0.034466671490    1.965848386143    0.044883586704
 H    0.356250967828    3.009593317019    0.066302402397
 C   -1.935864010348    0.513258548749    0.023985230424
 O   -3.153638041880    0.346315842682    0.024981311198
 N   -1.010557994737   -0.523519061093   -0.003671306565
 H   -1.405131702600   -1.462033370942   -0.024180179963
 C    0.395172383658   -0.437480348775   -0.012119357356
 O    1.083493056086   -1.461097570577   -0.040227295909
 C    0.924941564723    0.930908519959    0.016487011778
 C    2.417231458329    1.114766845421    0.011656201952
 H    2.678779087409    2.183194722289    0.034310370099
 H    2.857375771919    0.656446625999   -0.887452049494
 H    2.868236665038    0.616280360115    0.883593038865
 H   -1.978454964248    2.550626746476    0.068410639370
LI    5.490646128872   -8.015074466997   -0.220195721565
