16

 N   -1.342031848673    1.775122610747    0.048755460895
 C    0.028583563736    1.974597288588    0.045123826519
 H    0.350367860074    3.018342219464    0.066542642212
 C   -1.941747118102    0.522007451194    0.024225470239
 O   -3.159521149634    0.355064745127    0.025221551013
 N   -1.016441102491   -0.514770158648   -0.003431066750
 H   -1.411014810354   -1.453284468497   -0.023939940148
 C    0.389289275904   -0.428731446330   -0.011879117541
 O    1.077609948332   -1.452348668132   -0.039987056094
 C    0.919058456969    0.939657422404    0.016727251593
 C    2.411348350575    1.123515747866    0.011896441767
 H    2.672895979655    2.191943624734    0.034550609914
 H    2.851492664165    0.665195528444   -0.887211809679
 H    2.862353557284    0.625029262560    0.883833278680
 H   -1.984338072002    2.559375648921    0.068650879185
LI    5.596336516631   -8.172249030283   -0.224511644425
