16

 N   -1.347914956427    1.783871513193    0.048995700711
 C    0.022700455982    1.983346191034    0.045364066335
 H    0.344484752320    3.027091121910    0.066782882028
 C   -1.947630225856    0.530756353640    0.024465710055
 O   -3.165404257388    0.363813647573    0.025461790829
 N   -1.022324210245   -0.506021256202   -0.003190826934
 H   -1.416897918108   -1.444535566051   -0.023699700332
 C    0.383406168150   -0.419982543884   -0.011638877725
 O    1.071726840578   -1.443599765686   -0.039746816278
 C    0.913175349215    0.948406324850    0.016967491409
 C    2.405465242821    1.132264650312    0.012136681583
 H    2.667012871901    2.200692527180    0.034790849730
 H    2.845609556411    0.673944430890   -0.886971569863
 H    2.856470449530    0.633778165006    0.884073518496
 H   -1.990221179756    2.568124551367    0.068891119001
LI    5.702026904391   -8.329423593570   -0.228827567284
