16

 N   -1.350856510304    1.788245964416    0.049115820618
 C    0.019758902105    1.987720642257    0.045484186242
 H    0.341543198443    3.031465573133    0.066903001935
 C   -1.950571779733    0.535130804863    0.024585829962
 O   -3.168345811265    0.368188098796    0.025581910736
 N   -1.025265764122   -0.501646804979   -0.003070707027
 H   -1.419839471985   -1.440161114828   -0.023579580425
 C    0.380464614273   -0.415608092661   -0.011518757818
 O    1.068785286701   -1.439225314463   -0.039626696371
 C    0.910233795338    0.952780776073    0.017087611316
 C    2.402523688944    1.136639101535    0.012256801490
 H    2.664071318024    2.205066978403    0.034910969637
 H    2.842668002534    0.678318882113   -0.886851449956
 H    2.853528895653    0.638152616229    0.884193638403
 H   -1.993162733633    2.572499002590    0.069011238908
LI    5.754872098271   -8.408010875213   -0.230985528714
