16

 N   -1.359681171934    1.801369318085    0.049476180341
 C    0.010934240475    2.000843995926    0.045844545965
 H    0.332718536813    3.044588926802    0.067263361658
 C   -1.959396441363    0.548254158532    0.024946189685
 O   -3.177170472895    0.381311452465    0.025942270459
 N   -1.034090425752   -0.488523451310   -0.002710347304
 H   -1.428664133615   -1.427037761159   -0.023219220702
 C    0.371639952643   -0.402484738992   -0.011158398095
 O    1.059960625071   -1.426101960794   -0.039266336648
 C    0.901409133708    0.965904129742    0.017447971039
 C    2.393699027314    1.149762455204    0.012617161213
 H    2.655246656394    2.218190332072    0.035271329360
 H    2.833843340904    0.691442235782   -0.886491090233
 H    2.844704234023    0.651275969898    0.884553998126
 H   -2.001987395263    2.585622356259    0.069371598631
LI    5.913407679911   -8.643772720143   -0.237459413003
