16

 N   -1.368505833565    1.814492671753    0.049836540064
 C    0.002109578844    2.013967349594    0.046204905688
 H    0.323893875182    3.057712280470    0.067623721381
 C   -1.968221102994    0.561377512200    0.025306549408
 O   -3.185995134526    0.394434806133    0.026302630182
 N   -1.042915087383   -0.475400097642   -0.002349987581
 H   -1.437488795246   -1.413914407491   -0.022858860979
 C    0.362815291012   -0.389361385324   -0.010798038372
 O    1.051135963440   -1.412978607126   -0.038905976925
 C    0.892584472077    0.979027483410    0.017808330762
 C    2.384874365683    1.162885808872    0.012977520936
 H    2.646421994763    2.231313685740    0.035631689083
 H    2.825018679273    0.704565589450   -0.886130730510
 H    2.835879572392    0.664399323566    0.884914357849
 H   -2.010812056894    2.598745709927    0.069731958354
LI    6.071943261550   -8.879534565072   -0.243933297293
