16

 N   -1.371447387442    1.818867122976    0.049956659972
 C   -0.000831975033    2.018341800817    0.046325025596
 H    0.320952321305    3.062086731693    0.067743841289
 C   -1.971162656871    0.565751963423    0.025426669316
 O   -3.188936688403    0.398809257356    0.026422750090
 N   -1.045856641260   -0.471025646419   -0.002229867673
 H   -1.440430349123   -1.409539956268   -0.022738741071
 C    0.359873737135   -0.384986934101   -0.010677918464
 O    1.048194409563   -1.408604155903   -0.038785857017
 C    0.889642918200    0.983401934633    0.017928450670
 C    2.381932811806    1.167260260095    0.013097640844
 H    2.643480440886    2.235688136963    0.035751808991
 H    2.822077125396    0.708940040673   -0.886010610602
 H    2.832938018515    0.668773774789    0.885034477757
 H   -2.013753610771    2.603120161150    0.069852078262
LI    6.124788455430   -8.958121846715   -0.246091258722
