16

 N   -1.386155156826    1.840739379091    0.050557259510
 C   -0.015539744417    2.040214056932    0.046925625134
 H    0.306244551921    3.083958987808    0.068344440827
 C   -1.985870426255    0.587624219538    0.026027268854
 O   -3.203644457787    0.420681513471    0.027023349628
 N   -1.060564410644   -0.449153390304   -0.001629268135
 H   -1.455138118507   -1.387667700153   -0.022138141533
 C    0.345165967751   -0.363114677986   -0.010077318926
 O    1.033486640179   -1.386731899788   -0.038185257479
 C    0.874935148816    1.005274190748    0.018529050208
 C    2.367225042422    1.189132516210    0.013698240382
 H    2.628772671502    2.257560393078    0.036352408529
 H    2.807369356012    0.730812296788   -0.885410011064
 H    2.818230249131    0.690646030904    0.885635077295
 H   -2.028461380155    2.624992417265    0.070452677800
LI    6.389014424830   -9.351058254931   -0.256881065871
