16

 N   -1.389096710703    1.845113830313    0.050677379418
 C   -0.018481298294    2.044588508154    0.047045745042
 H    0.303302998044    3.088333439030    0.068464560735
 C   -1.988811980132    0.591998670760    0.026147388762
 O   -3.206586011664    0.425055964693    0.027143469536
 N   -1.063505964521   -0.444778939082   -0.001509148227
 H   -1.458079672384   -1.383293248931   -0.022018021625
 C    0.342224413874   -0.358740226764   -0.009957199018
 O    1.030545086302   -1.382357448566   -0.038065137571
 C    0.871993594939    1.009648641970    0.018649170116
 C    2.364283488545    1.193506967432    0.013818360290
 H    2.625831117625    2.261934844300    0.036472528437
 H    2.804427802135    0.735186748010   -0.885289891156
 H    2.815288695254    0.695020482126    0.885755197203
 H   -2.031402934032    2.629366868487    0.070572797708
LI    6.441859618710   -9.429645536574   -0.259039027301
