14

 C    0.132849506908   -2.101163367031    0.000000000000
 H    0.140571506908   -3.194338367031    0.000000000000
 C    1.343325506908   -1.381324367031    0.000000000000
 H    2.298344506908   -1.915023367031    0.000000000000
 C   -1.086974493092   -1.401157367031    0.000000000000
 H   -2.035106493092   -1.946969367031    0.000000000000
 C    1.340917506908    0.023820632969    0.000000000000
 H    2.272271506908    0.596359632969    0.000000000000
 C   -1.100825493092    0.006323632969    0.000000000000
 H   -2.052824493092    0.549044632969    0.000000000000
 C    0.115451506908    0.714105632969    0.000000000000
 O    0.175998506908    2.094566632969    0.000000000000
 H   -0.727132493092    2.442993632969    0.000000000000
LI   -1.660107624308    2.802934467736    0.000000000000
