14

 C    0.139326743011   -2.103662277980    0.000000000000
 H    0.147048743011   -3.196837277980    0.000000000000
 C    1.349802743011   -1.383823277980    0.000000000000
 H    2.304821743011   -1.917522277980    0.000000000000
 C   -1.080497256989   -1.403656277980    0.000000000000
 H   -2.028629256989   -1.949468277980    0.000000000000
 C    1.347394743011    0.021321722020    0.000000000000
 H    2.278748743011    0.593860722020    0.000000000000
 C   -1.094348256989    0.003824722020    0.000000000000
 H   -2.046347256989    0.546545722020    0.000000000000
 C    0.121928743011    0.711606722020    0.000000000000
 O    0.182475743011    2.092067722020    0.000000000000
 H   -0.720655256989    2.440494722020    0.000000000000
LI   -1.746927901327    2.836429640264    0.000000000000
