14

 C    0.152281215216   -2.108660099876    0.000000000000
 H    0.160003215216   -3.201835099876    0.000000000000
 C    1.362757215216   -1.388821099876    0.000000000000
 H    2.317776215216   -1.922520099876    0.000000000000
 C   -1.067542784784   -1.408654099876    0.000000000000
 H   -2.015674784784   -1.954466099876    0.000000000000
 C    1.360349215216    0.016323900124    0.000000000000
 H    2.291703215216    0.588862900124    0.000000000000
 C   -1.081393784784   -0.001173099876    0.000000000000
 H   -2.033392784784    0.541547900124    0.000000000000
 C    0.134883215216    0.706608900124    0.000000000000
 O    0.195430215216    2.087069900124    0.000000000000
 H   -0.707700784784    2.435496900124    0.000000000000
LI   -1.920568455364    2.903419985321    0.000000000000
