14

 C    0.715800756150   -2.326065352369    0.000000000000
 H    0.723522756150   -3.419240352369    0.000000000000
 C    1.926276756150   -1.606226352369    0.000000000000
 H    2.881295756150   -2.139925352369    0.000000000000
 C   -0.504023243850   -1.626059352369    0.000000000000
 H   -1.452155243850   -2.171871352369    0.000000000000
 C    1.923868756150   -0.201081352369    0.000000000000
 H    2.855222756150    0.371457647631    0.000000000000
 C   -0.517874243850   -0.218578352369    0.000000000000
 H   -1.469873243850    0.324142647631    0.000000000000
 C    0.698402756150    0.489203647631    0.000000000000
 O    0.758949756150    1.869664647631    0.000000000000
 H   -0.144181243850    2.218091647631    0.000000000000
LI   -9.473932556007    5.817499995303    0.000000000000
