14

 C    0.210576340140   -2.131150298410    0.000000000000
 H    0.218298340140   -3.224325298410    0.000000000000
 C    1.421052340140   -1.411311298410    0.000000000000
 H    2.376071340140   -1.945010298410    0.000000000000
 C   -1.009247659860   -1.431144298410    0.000000000000
 H   -1.957379659860   -1.976956298410    0.000000000000
 C    1.418644340140   -0.006166298410    0.000000000000
 H    2.349998340140    0.566372701590    0.000000000000
 C   -1.023098659860   -0.023663298410    0.000000000000
 H   -1.975097659860    0.519057701590    0.000000000000
 C    0.193178340140    0.684118701590    0.000000000000
 O    0.253725340140    2.064579701590    0.000000000000
 H   -0.649405659860    2.413006701590    0.000000000000
LI   -2.701950948534    3.204876538078    0.000000000000
