14

 C    0.223530812346   -2.136148120306    0.000000000000
 H    0.231252812346   -3.229323120306    0.000000000000
 C    1.434006812346   -1.416309120306    0.000000000000
 H    2.389025812346   -1.950008120306    0.000000000000
 C   -0.996293187654   -1.436142120306    0.000000000000
 H   -1.944425187654   -1.981954120306    0.000000000000
 C    1.431598812346   -0.011164120306    0.000000000000
 H    2.362952812346    0.561374879694    0.000000000000
 C   -1.010144187654   -0.028661120306    0.000000000000
 H   -1.962143187654    0.514059879694    0.000000000000
 C    0.206132812346    0.679120879694    0.000000000000
 O    0.266679812346    2.059581879694    0.000000000000
 H   -0.636451187654    2.408008879694    0.000000000000
LI   -2.875591502572    3.271866883135    0.000000000000
