14

 C    0.249439756757   -2.146143764099    0.000000000000
 H    0.257161756757   -3.239318764099    0.000000000000
 C    1.459915756757   -1.426304764099    0.000000000000
 H    2.414934756757   -1.960003764099    0.000000000000
 C   -0.970384243243   -1.446137764099    0.000000000000
 H   -1.918516243243   -1.991949764099    0.000000000000
 C    1.457507756757   -0.021159764099    0.000000000000
 H    2.388861756757    0.551379235901    0.000000000000
 C   -0.984235243243   -0.038656764099    0.000000000000
 H   -1.936234243243    0.504064235901    0.000000000000
 C    0.232041756757    0.669125235901    0.000000000000
 O    0.292588756757    2.049586235901    0.000000000000
 H   -0.610542243243    2.398013235901    0.000000000000
LI   -3.222872610648    3.405847573249    0.000000000000
