14

 C    0.268871465065   -2.153640496944    0.000000000000
 H    0.276593465065   -3.246815496944    0.000000000000
 C    1.479347465065   -1.433801496944    0.000000000000
 H    2.434366465065   -1.967500496944    0.000000000000
 C   -0.950952534935   -1.453634496944    0.000000000000
 H   -1.899084534935   -1.999446496944    0.000000000000
 C    1.476939465065   -0.028656496944    0.000000000000
 H    2.408293465065    0.543882503056    0.000000000000
 C   -0.964803534935   -0.046153496944    0.000000000000
 H   -1.916802534935    0.496567503056    0.000000000000
 C    0.251473465065    0.661628503056    0.000000000000
 O    0.312020465065    2.042089503056    0.000000000000
 H   -0.591110534935    2.390516503056    0.000000000000
LI   -3.483333441704    3.506333090835    0.000000000000
