14

 C    0.307734881681   -2.168633962633    0.000000000000
 H    0.315456881681   -3.261808962633    0.000000000000
 C    1.518210881681   -1.448794962633    0.000000000000
 H    2.473229881681   -1.982493962633    0.000000000000
 C   -0.912089118319   -1.468627962633    0.000000000000
 H   -1.860221118319   -2.014439962633    0.000000000000
 C    1.515802881681   -0.043649962633    0.000000000000
 H    2.447156881681    0.528889037367    0.000000000000
 C   -0.925940118319   -0.061146962633    0.000000000000
 H   -1.877939118319    0.481574037367    0.000000000000
 C    0.290336881681    0.646635037367    0.000000000000
 O    0.350883881681    2.027096037367    0.000000000000
 H   -0.552247118319    2.375523037367    0.000000000000
LI   -4.004255103818    3.707304126006    0.000000000000
