14

 C    0.314212117783   -2.171132873581    0.000000000000
 H    0.321934117783   -3.264307873581    0.000000000000
 C    1.524688117783   -1.451293873581    0.000000000000
 H    2.479707117783   -1.984992873581    0.000000000000
 C   -0.905611882217   -1.471126873581    0.000000000000
 H   -1.853743882217   -2.016938873581    0.000000000000
 C    1.522280117783   -0.046148873581    0.000000000000
 H    2.453634117783    0.526390126419    0.000000000000
 C   -0.919462882217   -0.063645873581    0.000000000000
 H   -1.871461882217    0.479075126419    0.000000000000
 C    0.296814117783    0.644136126419    0.000000000000
 O    0.357361117783    2.024597126419    0.000000000000
 H   -0.545769882217    2.373024126419    0.000000000000
LI   -4.091075380837    3.740799298534    0.000000000000
