14

 C    0.320689353886   -2.173631784529    0.000000000000
 H    0.328411353886   -3.266806784529    0.000000000000
 C    1.531165353886   -1.453792784529    0.000000000000
 H    2.486184353886   -1.987491784529    0.000000000000
 C   -0.899134646114   -1.473625784529    0.000000000000
 H   -1.847266646114   -2.019437784529    0.000000000000
 C    1.528757353886   -0.048647784529    0.000000000000
 H    2.460111353886    0.523891215471    0.000000000000
 C   -0.912985646114   -0.066144784529    0.000000000000
 H   -1.864984646114    0.476576215471    0.000000000000
 C    0.303291353886    0.641637215471    0.000000000000
 O    0.363838353886    2.022098215471    0.000000000000
 H   -0.539292646114    2.370525215471    0.000000000000
LI   -4.177895657855    3.774294471063    0.000000000000
