14

 C    0.353075534400   -2.186126339270    0.000000000000
 H    0.360797534400   -3.279301339270    0.000000000000
 C    1.563551534400   -1.466287339270    0.000000000000
 H    2.518570534400   -1.999986339270    0.000000000000
 C   -0.866748465600   -1.486120339270    0.000000000000
 H   -1.814880465600   -2.031932339270    0.000000000000
 C    1.561143534400   -0.061142339270    0.000000000000
 H    2.492497534400    0.511396660730    0.000000000000
 C   -0.880599465600   -0.078639339270    0.000000000000
 H   -1.832598465600    0.464081660730    0.000000000000
 C    0.335677534400    0.629142660730    0.000000000000
 O    0.396224534400    2.009603660730    0.000000000000
 H   -0.506906465600    2.358030660730    0.000000000000
LI   -4.611997042950    3.941770333706    0.000000000000
