14

 C    0.366030006605   -2.191124161166    0.000000000000
 H    0.373752006605   -3.284299161166    0.000000000000
 C    1.576506006605   -1.471285161166    0.000000000000
 H    2.531525006605   -2.004984161166    0.000000000000
 C   -0.853793993395   -1.491118161166    0.000000000000
 H   -1.801925993395   -2.036930161166    0.000000000000
 C    1.574098006605   -0.066140161166    0.000000000000
 H    2.505452006605    0.506398838834    0.000000000000
 C   -0.867644993395   -0.083637161166    0.000000000000
 H   -1.819643993395    0.459083838834    0.000000000000
 C    0.348632006605    0.624144838834    0.000000000000
 O    0.409179006605    2.004605838834    0.000000000000
 H   -0.493951993395    2.353032838834    0.000000000000
LI   -4.785637596988    4.008760678763    0.000000000000
