14

 C    0.404893423221   -2.206117626856    0.000000000000
 H    0.412615423221   -3.299292626856    0.000000000000
 C    1.615369423221   -1.486278626856    0.000000000000
 H    2.570388423221   -2.019977626856    0.000000000000
 C   -0.814930576779   -1.506111626856    0.000000000000
 H   -1.763062576779   -2.051923626856    0.000000000000
 C    1.612961423221   -0.081133626856    0.000000000000
 H    2.544315423221    0.491405373144    0.000000000000
 C   -0.828781576779   -0.098630626856    0.000000000000
 H   -1.780780576779    0.444090373144    0.000000000000
 C    0.387495423221    0.609151373144    0.000000000000
 O    0.448042423221    1.989612373144    0.000000000000
 H   -0.455088576779    2.338039373144    0.000000000000
LI   -5.306559259101    4.209731713934    0.000000000000
