14

 C    0.411370659324   -2.208616537804    0.000000000000
 H    0.419092659324   -3.301791537804    0.000000000000
 C    1.621846659324   -1.488777537804    0.000000000000
 H    2.576865659324   -2.022476537804    0.000000000000
 C   -0.808453340676   -1.508610537804    0.000000000000
 H   -1.756585340676   -2.054422537804    0.000000000000
 C    1.619438659324   -0.083632537804    0.000000000000
 H    2.550792659324    0.488906462196    0.000000000000
 C   -0.822304340676   -0.101129537804    0.000000000000
 H   -1.774303340676    0.441591462196    0.000000000000
 C    0.393972659324    0.606652462196    0.000000000000
 O    0.454519659324    1.987113462196    0.000000000000
 H   -0.448611340676    2.335540462196    0.000000000000
LI   -5.393379536120    4.243226886462    0.000000000000
