14

 C    0.430802367632   -2.216113270648    0.000000000000
 H    0.438524367632   -3.309288270648    0.000000000000
 C    1.641278367632   -1.496274270648    0.000000000000
 H    2.596297367632   -2.029973270648    0.000000000000
 C   -0.789021632368   -1.516107270648    0.000000000000
 H   -1.737153632368   -2.061919270648    0.000000000000
 C    1.638870367632   -0.091129270648    0.000000000000
 H    2.570224367632    0.481409729352    0.000000000000
 C   -0.802872632368   -0.108626270648    0.000000000000
 H   -1.754871632368    0.434094729352    0.000000000000
 C    0.413404367632    0.599155729352    0.000000000000
 O    0.473951367632    1.979616729352    0.000000000000
 H   -0.429179632368    2.328043729352    0.000000000000
LI   -5.653840367176    4.343712404048    0.000000000000
