14

 C    0.450234075940   -2.223610003493    0.000000000000
 H    0.457956075940   -3.316785003493    0.000000000000
 C    1.660710075940   -1.503771003493    0.000000000000
 H    2.615729075940   -2.037470003493    0.000000000000
 C   -0.769589924060   -1.523604003493    0.000000000000
 H   -1.717721924060   -2.069416003493    0.000000000000
 C    1.658302075940   -0.098626003493    0.000000000000
 H    2.589656075940    0.473912996507    0.000000000000
 C   -0.783440924060   -0.116123003493    0.000000000000
 H   -1.735439924060    0.426597996507    0.000000000000
 C    0.432836075940    0.591658996507    0.000000000000
 O    0.493383075940    1.972119996507    0.000000000000
 H   -0.409747924060    2.320546996507    0.000000000000
LI   -5.914301198233    4.444197921633    0.000000000000
