14

 C    0.495574728659   -2.241102380130    0.000000000000
 H    0.503296728659   -3.334277380130    0.000000000000
 C    1.706050728659   -1.521263380130    0.000000000000
 H    2.661069728659   -2.054962380130    0.000000000000
 C   -0.724249271341   -1.541096380130    0.000000000000
 H   -1.672381271341   -2.086908380130    0.000000000000
 C    1.703642728659   -0.116118380130    0.000000000000
 H    2.634996728659    0.456420619870    0.000000000000
 C   -0.738100271341   -0.133615380130    0.000000000000
 H   -1.690099271341    0.409105619870    0.000000000000
 C    0.478176728659    0.574166619870    0.000000000000
 O    0.538723728659    1.954627619870    0.000000000000
 H   -0.364407271341    2.303054619870    0.000000000000
LI   -6.522043137365    4.678664129333    0.000000000000
