14

 C    0.521483673070   -2.251098023923    0.000000000000
 H    0.529205673070   -3.344273023923    0.000000000000
 C    1.731959673070   -1.531259023923    0.000000000000
 H    2.686978673070   -2.064958023923    0.000000000000
 C   -0.698340326930   -1.551092023923    0.000000000000
 H   -1.646472326930   -2.096904023923    0.000000000000
 C    1.729551673070   -0.126114023923    0.000000000000
 H    2.660905673070    0.446424976077    0.000000000000
 C   -0.712191326930   -0.143611023923    0.000000000000
 H   -1.664190326930    0.399109976077    0.000000000000
 C    0.504085673070    0.564170976077    0.000000000000
 O    0.564632673070    1.944631976077    0.000000000000
 H   -0.338498326930    2.293058976077    0.000000000000
LI   -6.869324245441    4.812644819447    0.000000000000
