14

 C    0.540915381378   -2.258594756768    0.000000000000
 H    0.548637381378   -3.351769756768    0.000000000000
 C    1.751391381378   -1.538755756768    0.000000000000
 H    2.706410381378   -2.072454756768    0.000000000000
 C   -0.678908618622   -1.558588756768    0.000000000000
 H   -1.627040618622   -2.104400756768    0.000000000000
 C    1.748983381378   -0.133610756768    0.000000000000
 H    2.680337381378    0.438928243232    0.000000000000
 C   -0.692759618622   -0.151107756768    0.000000000000
 H   -1.644758618622    0.391613243232    0.000000000000
 C    0.523517381378    0.556674243232    0.000000000000
 O    0.584064381378    1.937135243232    0.000000000000
 H   -0.319066618622    2.285562243232    0.000000000000
LI   -7.129785076497    4.913130337033    0.000000000000
