14

 C    0.547392617480   -2.261093667716    0.000000000000
 H    0.555114617480   -3.354268667716    0.000000000000
 C    1.757868617480   -1.541254667716    0.000000000000
 H    2.712887617480   -2.074953667716    0.000000000000
 C   -0.672431382520   -1.561087667716    0.000000000000
 H   -1.620563382520   -2.106899667716    0.000000000000
 C    1.755460617480   -0.136109667716    0.000000000000
 H    2.686814617480    0.436429332284    0.000000000000
 C   -0.686282382520   -0.153606667716    0.000000000000
 H   -1.638281382520    0.389114332284    0.000000000000
 C    0.529994617480    0.554175332284    0.000000000000
 O    0.590541617480    1.934636332284    0.000000000000
 H   -0.312589382520    2.283063332284    0.000000000000
LI   -7.216605353516    4.946625509561    0.000000000000
