14

 C    0.553869853583   -2.263592578664    0.000000000000
 H    0.561591853583   -3.356767578664    0.000000000000
 C    1.764345853583   -1.543753578664    0.000000000000
 H    2.719364853583   -2.077452578664    0.000000000000
 C   -0.665954146417   -1.563586578664    0.000000000000
 H   -1.614086146417   -2.109398578664    0.000000000000
 C    1.761937853583   -0.138608578664    0.000000000000
 H    2.693291853583    0.433930421336    0.000000000000
 C   -0.679805146417   -0.156105578664    0.000000000000
 H   -1.631804146417    0.386615421336    0.000000000000
 C    0.536471853583    0.551676421336    0.000000000000
 O    0.597018853583    1.932137421336    0.000000000000
 H   -0.306112146417    2.280564421336    0.000000000000
LI   -7.303425630535    4.980120682090    0.000000000000
