14

 C    0.566824325788   -2.268590400560    0.000000000000
 H    0.574546325788   -3.361765400560    0.000000000000
 C    1.777300325788   -1.548751400560    0.000000000000
 H    2.732319325788   -2.082450400560    0.000000000000
 C   -0.652999674212   -1.568584400560    0.000000000000
 H   -1.601131674212   -2.114396400560    0.000000000000
 C    1.774892325788   -0.143606400560    0.000000000000
 H    2.706246325788    0.428932599440    0.000000000000
 C   -0.666850674212   -0.161103400560    0.000000000000
 H   -1.618849674212    0.381617599440    0.000000000000
 C    0.549426325788    0.546678599440    0.000000000000
 O    0.609973325788    1.927139599440    0.000000000000
 H   -0.293157674212    2.275566599440    0.000000000000
LI   -7.477066184573    5.047111027147    0.000000000000
