14

 C    0.573301561891   -2.271089311509    0.000000000000
 H    0.581023561891   -3.364264311509    0.000000000000
 C    1.783777561891   -1.551250311509    0.000000000000
 H    2.738796561891   -2.084949311509    0.000000000000
 C   -0.646522438109   -1.571083311509    0.000000000000
 H   -1.594654438109   -2.116895311509    0.000000000000
 C    1.781369561891   -0.146105311509    0.000000000000
 H    2.712723561891    0.426433688491    0.000000000000
 C   -0.660373438109   -0.163602311509    0.000000000000
 H   -1.612372438109    0.379118688491    0.000000000000
 C    0.555903561891    0.544179688491    0.000000000000
 O    0.616450561891    1.924640688491    0.000000000000
 H   -0.286680438109    2.273067688491    0.000000000000
LI   -7.563886461592    5.080606199675    0.000000000000
