14

 C    0.586256034097   -2.276087133405    0.000000000000
 H    0.593978034097   -3.369262133405    0.000000000000
 C    1.796732034097   -1.556248133405    0.000000000000
 H    2.751751034097   -2.089947133405    0.000000000000
 C   -0.633567965903   -1.576081133405    0.000000000000
 H   -1.581699965903   -2.121893133405    0.000000000000
 C    1.794324034097   -0.151103133405    0.000000000000
 H    2.725678034097    0.421435866595    0.000000000000
 C   -0.647418965903   -0.168600133405    0.000000000000
 H   -1.599417965903    0.374120866595    0.000000000000
 C    0.568858034097    0.539181866595    0.000000000000
 O    0.629405034097    1.919642866595    0.000000000000
 H   -0.273725965903    2.268069866595    0.000000000000
LI   -7.737527015630    5.147596544732    0.000000000000
