14

 C    0.592733270199   -2.278586044353    0.000000000000
 H    0.600455270199   -3.371761044353    0.000000000000
 C    1.803209270199   -1.558747044353    0.000000000000
 H    2.758228270199   -2.092446044353    0.000000000000
 C   -0.627090729801   -1.578580044353    0.000000000000
 H   -1.575222729801   -2.124392044353    0.000000000000
 C    1.800801270199   -0.153602044353    0.000000000000
 H    2.732155270199    0.418936955647    0.000000000000
 C   -0.640941729801   -0.171099044353    0.000000000000
 H   -1.592940729801    0.371621955647    0.000000000000
 C    0.575335270199    0.536682955647    0.000000000000
 O    0.635882270199    1.917143955647    0.000000000000
 H   -0.267248729801    2.265570955647    0.000000000000
LI   -7.824347292649    5.181091717261    0.000000000000
