14

 C    0.612164978507   -2.286082777198    0.000000000000
 H    0.619886978507   -3.379257777198    0.000000000000
 C    1.822640978507   -1.566243777198    0.000000000000
 H    2.777659978507   -2.099942777198    0.000000000000
 C   -0.607659021493   -1.586076777198    0.000000000000
 H   -1.555791021493   -2.131888777198    0.000000000000
 C    1.820232978507   -0.161098777198    0.000000000000
 H    2.751586978507    0.411440222802    0.000000000000
 C   -0.621510021493   -0.178595777198    0.000000000000
 H   -1.573509021493    0.364125222802    0.000000000000
 C    0.594766978507    0.529186222802    0.000000000000
 O    0.655313978507    1.909647222802    0.000000000000
 H   -0.247817021493    2.258074222802    0.000000000000
LI   -8.084808123705    5.281577234847    0.000000000000
