14

 C    0.625119450713   -2.291080599094    0.000000000000
 H    0.632841450713   -3.384255599094    0.000000000000
 C    1.835595450713   -1.571241599094    0.000000000000
 H    2.790614450713   -2.104940599094    0.000000000000
 C   -0.594704549287   -1.591074599094    0.000000000000
 H   -1.542836549287   -2.136886599094    0.000000000000
 C    1.833187450713   -0.166096599094    0.000000000000
 H    2.764541450713    0.406442400906    0.000000000000
 C   -0.608555549287   -0.183593599094    0.000000000000
 H   -1.560554549287    0.359127400906    0.000000000000
 C    0.607721450713    0.524188400906    0.000000000000
 O    0.668268450713    1.904649400906    0.000000000000
 H   -0.234862549287    2.253076400906    0.000000000000
LI   -8.258448677743    5.348567579904    0.000000000000
