14

 C    0.631596686815   -2.293579510042    0.000000000000
 H    0.639318686815   -3.386754510042    0.000000000000
 C    1.842072686815   -1.573740510042    0.000000000000
 H    2.797091686815   -2.107439510042    0.000000000000
 C   -0.588227313185   -1.593573510042    0.000000000000
 H   -1.536359313185   -2.139385510042    0.000000000000
 C    1.839664686815   -0.168595510042    0.000000000000
 H    2.771018686815    0.403943489958    0.000000000000
 C   -0.602078313185   -0.186092510042    0.000000000000
 H   -1.554077313185    0.356628489958    0.000000000000
 C    0.614198686815    0.521689489958    0.000000000000
 O    0.674745686815    1.902150489958    0.000000000000
 H   -0.228385313185    2.250577489958    0.000000000000
LI   -8.345268954762    5.382062752432    0.000000000000
