14

 C    0.657505631226   -2.303575153835    0.000000000000
 H    0.665227631226   -3.396750153835    0.000000000000
 C    1.867981631226   -1.583736153835    0.000000000000
 H    2.823000631226   -2.117435153835    0.000000000000
 C   -0.562318368774   -1.603569153835    0.000000000000
 H   -1.510450368774   -2.149381153835    0.000000000000
 C    1.865573631226   -0.178591153835    0.000000000000
 H    2.796927631226    0.393947846165    0.000000000000
 C   -0.576169368774   -0.196088153835    0.000000000000
 H   -1.528168368774    0.346632846165    0.000000000000
 C    0.640107631226    0.511693846165    0.000000000000
 O    0.700654631226    1.892154846165    0.000000000000
 H   -0.202476368774    2.240581846165    0.000000000000
LI   -8.692550062837    5.516043442546    0.000000000000
