14

 C    0.670460103432   -2.308572975732    0.000000000000
 H    0.678182103432   -3.401747975732    0.000000000000
 C    1.880936103432   -1.588733975732    0.000000000000
 H    2.835955103432   -2.122432975732    0.000000000000
 C   -0.549363896568   -1.608566975732    0.000000000000
 H   -1.497495896568   -2.154378975732    0.000000000000
 C    1.878528103432   -0.183588975732    0.000000000000
 H    2.809882103432    0.388950024268    0.000000000000
 C   -0.563214896568   -0.201085975732    0.000000000000
 H   -1.515213896568    0.341635024268    0.000000000000
 C    0.653062103432    0.506696024268    0.000000000000
 O    0.713609103432    1.887157024268    0.000000000000
 H   -0.189521896568    2.235584024268    0.000000000000
LI   -8.866190616875    5.583033787603    0.000000000000
