14

 C    0.709323520048   -2.323566441421    0.000000000000
 H    0.717045520048   -3.416741441421    0.000000000000
 C    1.919799520048   -1.603727441421    0.000000000000
 H    2.874818520048   -2.137426441421    0.000000000000
 C   -0.510500479952   -1.623560441421    0.000000000000
 H   -1.458632479952   -2.169372441421    0.000000000000
 C    1.917391520048   -0.198582441421    0.000000000000
 H    2.848745520048    0.373956558579    0.000000000000
 C   -0.524351479952   -0.216079441421    0.000000000000
 H   -1.476350479952    0.326641558579    0.000000000000
 C    0.691925520048    0.491702558579    0.000000000000
 O    0.752472520048    1.872163558579    0.000000000000
 H   -0.150658479952    2.220590558579    0.000000000000
LI   -9.387112278988    5.784004822774    0.000000000000
