7

 C   -0.797124707203    1.280244144894    0.000000000000
 O   -0.797124707203   -0.154641855106    0.000000000000
 H    0.121885292797   -0.451442855106    0.000000000000
 H   -1.850443707203    1.588233144894    0.000000000000
 H   -0.308458707203    1.691177144894    0.899440000000
 H   -0.308458707203    1.691177144894   -0.899440000000
NA    1.073489127678   -0.758770272432    0.000000000000
