7

 C   -0.876654876470    1.305928994644    0.000000000000
 O   -0.876654876470   -0.128957005356    0.000000000000
 H    0.042355123530   -0.425758005356    0.000000000000
 H   -1.929973876470    1.613917994644    0.000000000000
 H   -0.387988876470    1.716861994644    0.899440000000
 H   -0.387988876470    1.716861994644   -0.899440000000
NA    1.184279725387   -0.794550906147    0.000000000000
