7

 C   -0.916419961104    1.318771419519    0.000000000000
 O   -0.916419961104   -0.116114580481    0.000000000000
 H    0.002590038896   -0.412915580481    0.000000000000
 H   -1.969738961104    1.626760419519    0.000000000000
 H   -0.427753961104    1.729704419519    0.899440000000
 H   -0.427753961104    1.729704419519   -0.899440000000
NA    1.239675024241   -0.812441223005    0.000000000000
