7

 C   -0.956185045737    1.331613844394    0.000000000000
 O   -0.956185045737   -0.103272155606    0.000000000000
 H   -0.037175045737   -0.400073155606    0.000000000000
 H   -2.009504045737    1.639602844394    0.000000000000
 H   -0.467519045737    1.742546844394    0.899440000000
 H   -0.467519045737    1.742546844394   -0.899440000000
NA    1.295070323096   -0.830331539862    0.000000000000
