7

 C   -0.995950130371    1.344456269269    0.000000000000
 O   -0.995950130371   -0.090429730731    0.000000000000
 H   -0.076940130371   -0.387230730731    0.000000000000
 H   -2.049269130371    1.652445269269    0.000000000000
 H   -0.507284130371    1.755389269269    0.899440000000
 H   -0.507284130371    1.755389269269   -0.899440000000
NA    1.350465621950   -0.848221856720    0.000000000000
