7

 C   -1.035715215005    1.357298694144    0.000000000000
 O   -1.035715215005   -0.077587305856    0.000000000000
 H   -0.116705215005   -0.374388305856    0.000000000000
 H   -2.089034215005    1.665287694144    0.000000000000
 H   -0.547049215005    1.768231694144    0.899440000000
 H   -0.547049215005    1.768231694144   -0.899440000000
NA    1.405860920805   -0.866112173577    0.000000000000
