7

 C   -1.075480299638    1.370141119019    0.000000000000
 O   -1.075480299638   -0.064744880981    0.000000000000
 H   -0.156470299638   -0.361545880981    0.000000000000
 H   -2.128799299638    1.678130119019    0.000000000000
 H   -0.586814299638    1.781074119019    0.899440000000
 H   -0.586814299638    1.781074119019   -0.899440000000
NA    1.461256219659   -0.884002490435    0.000000000000
