7

 C   -1.234540638173    1.421510818519    0.000000000000
 O   -1.234540638173   -0.013375181481    0.000000000000
 H   -0.315530638173   -0.310176181481    0.000000000000
 H   -2.287859638173    1.729499818519    0.000000000000
 H   -0.745874638173    1.832443818519    0.899440000000
 H   -0.745874638173    1.832443818519   -0.899440000000
NA    1.682837415077   -0.955563757865    0.000000000000
