7

 C   -1.274305722807    1.434353243394    0.000000000000
 O   -1.274305722807   -0.000532756606    0.000000000000
 H   -0.355295722807   -0.297333756606    0.000000000000
 H   -2.327624722807    1.742342243394    0.000000000000
 H   -0.785639722807    1.845286243394    0.899440000000
 H   -0.785639722807    1.845286243394   -0.899440000000
NA    1.738232713931   -0.973454074723    0.000000000000
