7

 C   -1.353835892074    1.460038093144    0.000000000000
 O   -1.353835892074    0.025152093144    0.000000000000
 H   -0.434825892074   -0.271648906856    0.000000000000
 H   -2.407154892074    1.768027093144    0.000000000000
 H   -0.865169892074    1.870971093144    0.899440000000
 H   -0.865169892074    1.870971093144   -0.899440000000
NA    1.849023311640   -1.009234708438    0.000000000000
