7

 C   -1.393600976708    1.472880518019    0.000000000000
 O   -1.393600976708    0.037994518019    0.000000000000
 H   -0.474590976708   -0.258806481981    0.000000000000
 H   -2.446919976708    1.780869518019    0.000000000000
 H   -0.904934976708    1.883813518019    0.899440000000
 H   -0.904934976708    1.883813518019   -0.899440000000
NA    1.904418610494   -1.027125025296    0.000000000000
