7

 C   -1.473131145975    1.498565367769    0.000000000000
 O   -1.473131145975    0.063679367769    0.000000000000
 H   -0.554121145975   -0.233121632231    0.000000000000
 H   -2.526450145975    1.806554367769    0.000000000000
 H   -0.984465145975    1.909498367769    0.899440000000
 H   -0.984465145975    1.909498367769   -0.899440000000
NA    2.015209208203   -1.062905659011    0.000000000000
