7

 C   -1.711721653777    1.575619917018    0.000000000000
 O   -1.711721653777    0.140733917018    0.000000000000
 H   -0.792711653777   -0.156067082982    0.000000000000
 H   -2.765040653777    1.883608917018    0.000000000000
 H   -1.223055653777    1.986552917018    0.899440000000
 H   -1.223055653777    1.986552917018   -0.899440000000
NA    2.347581001329   -1.170247560156    0.000000000000
