7

 C   -1.751486738411    1.588462341893    0.000000000000
 O   -1.751486738411    0.153576341893    0.000000000000
 H   -0.832476738411   -0.143224658107    0.000000000000
 H   -2.804805738411    1.896451341893    0.000000000000
 H   -1.262820738411    1.999395341893    0.899440000000
 H   -1.262820738411    1.999395341893   -0.899440000000
NA    2.402976300184   -1.188137877014    0.000000000000
