7

 C   -2.069607415481    1.691201740893    0.000000000000
 O   -2.069607415481    0.256315740893    0.000000000000
 H   -1.150597415481   -0.040485259107    0.000000000000
 H   -3.122926415481    1.999190740893    0.000000000000
 H   -1.580941415481    2.102134740893    0.899440000000
 H   -1.580941415481    2.102134740893   -0.899440000000
NA    2.846138691019   -1.331260411875    0.000000000000
