7

 C   -2.149137584748    1.716886590643    0.000000000000
 O   -2.149137584748    0.282000590643    0.000000000000
 H   -1.230127584748   -0.014800409357    0.000000000000
 H   -3.202456584748    2.024875590643    0.000000000000
 H   -1.660471584748    2.127819590643    0.899440000000
 H   -1.660471584748    2.127819590643   -0.899440000000
NA    2.956929288728   -1.367041045590    0.000000000000
