7

 C   -2.188902669382    1.729729015518    0.000000000000
 O   -2.188902669382    0.294843015518    0.000000000000
 H   -1.269892669382   -0.001957984482    0.000000000000
 H   -3.242221669382    2.037718015518    0.000000000000
 H   -1.700236669382    2.140662015518    0.899440000000
 H   -1.700236669382    2.140662015518   -0.899440000000
NA    3.012324587582   -1.384931362447    0.000000000000
