7

 C   -2.228667754015    1.742571440393    0.000000000000
 O   -2.228667754015    0.307685440393    0.000000000000
 H   -1.309657754015    0.010884440393    0.000000000000
 H   -3.281986754015    2.050560440393    0.000000000000
 H   -1.740001754015    2.153504440393    0.899440000000
 H   -1.740001754015    2.153504440393   -0.899440000000
NA    3.067719886437   -1.402821679305    0.000000000000
