7

 C   -2.387728092550    1.793941139893    0.000000000000
 O   -2.387728092550    0.359055139893    0.000000000000
 H   -1.468718092550    0.062254139893    0.000000000000
 H   -3.441047092550    2.101930139893    0.000000000000
 H   -1.899062092550    2.204874139893    0.899440000000
 H   -1.899062092550    2.204874139893   -0.899440000000
NA    3.289301081854   -1.474382946735    0.000000000000
