7

 C   -2.666083684986    1.883838114018    0.000000000000
 O   -2.666083684986    0.448952114018    0.000000000000
 H   -1.747073684986    0.152151114018    0.000000000000
 H   -3.719402684986    2.191827114018    0.000000000000
 H   -2.177417684986    2.294771114018    0.899440000000
 H   -2.177417684986    2.294771114018   -0.899440000000
NA    3.677068173835   -1.599615164738    0.000000000000
