7

 C   -2.705848769619    1.896680538893    0.000000000000
 O   -2.705848769619    0.461794538893    0.000000000000
 H   -1.786838769619    0.164993538893    0.000000000000
 H   -3.759167769619    2.204669538893    0.000000000000
 H   -2.217182769619    2.307613538893    0.899440000000
 H   -2.217182769619    2.307613538893   -0.899440000000
NA    3.732463472689   -1.617505481596    0.000000000000
