7

 C   -2.785378938887    1.922365388643    0.000000000000
 O   -2.785378938887    0.487479388643    0.000000000000
 H   -1.866368938887    0.190678388643    0.000000000000
 H   -3.838697938887    2.230354388643    0.000000000000
 H   -2.296712938887    2.333298388643    0.899440000000
 H   -2.296712938887    2.333298388643   -0.899440000000
NA    3.843254070398   -1.653286115311    0.000000000000
