24

 C   -3.330928168213    0.594145626569    0.000000000000
 C   -2.402118168213   -0.576514373431    0.000000000000
 O   -2.989748168213   -1.728034373431    0.000000000000
 C   -2.184928168213   -2.961654373431    0.000000000000
 O   -1.127508168213   -0.460394373431    0.000000000000
 H   -2.774418168213    1.536735626569    0.000000000000
 H   -3.984948168213    0.533875626569    0.882920000000
 H   -3.984948168213    0.533875626569   -0.882920000000
 H   -2.927278168213   -3.762664373431    0.000000000000
 H   -1.573298168213   -2.988994373431    0.908450000000
 H   -1.573298168213   -2.988994373431   -0.908450000000
LI    0.169571831787    0.069245626569    1.302850000000
LI    0.169571831787    0.069245626569   -1.302850000000
 O    1.095364628418    0.447276971442    0.000000000000
 C    2.369976734710    0.563390668279    0.000000000000
 O    2.957612881638    1.714906948200    0.000000000000
 C    2.152798765300    2.948530262565    0.000000000000
 H    2.895148891228    3.749542461369    0.000000000000
 H    1.541163461894    2.975875304588   -0.908446340906
 H    1.541163461894    2.975875304588    0.908446340906
 C    3.298785870332   -0.607273795385    0.000000000000
 H    2.742267491035   -1.549854479255    0.000000000000
 H    3.952806731894   -0.547007850425   -0.882920667399
 H    3.952806731894   -0.547007850425    0.882920667399
