24

 C   -3.373210934244    0.576880196372    0.000000000000
 C   -2.444400934244   -0.593779803628    0.000000000000
 O   -3.032030934244   -1.745299803628    0.000000000000
 C   -2.227210934244   -2.978919803628    0.000000000000
 O   -1.169790934244   -0.477659803628    0.000000000000
 H   -2.816700934244    1.519470196372    0.000000000000
 H   -4.027230934244    0.516610196372    0.882920000000
 H   -4.027230934244    0.516610196372   -0.882920000000
 H   -2.969560934244   -3.779929803628    0.000000000000
 H   -1.615580934244   -3.006259803628    0.908450000000
 H   -1.615580934244   -3.006259803628   -0.908450000000
LI    0.127289065756    0.051980196372    1.302850000000
LI    0.127289065756    0.051980196372   -1.302850000000
 O    1.145661142050    0.467814675732    0.000000000000
 C    2.420273248342    0.583928372569    0.000000000000
 O    3.007909395270    1.735444652490    0.000000000000
 C    2.203095278932    2.969067966854    0.000000000000
 H    2.945445404860    3.770080165659    0.000000000000
 H    1.591459975526    2.996413008878   -0.908446340906
 H    1.591459975526    2.996413008878    0.908446340906
 C    3.349082383964   -0.586736091095    0.000000000000
 H    2.792564004667   -1.529316774965    0.000000000000
 H    4.003103245526   -0.526470146136   -0.882920667399
 H    4.003103245526   -0.526470146136    0.882920667399
