24

 C   -3.415493700275    0.559614766174    0.000000000000
 C   -2.486683700275   -0.611045233826    0.000000000000
 O   -3.074313700275   -1.762565233826    0.000000000000
 C   -2.269493700275   -2.996185233826    0.000000000000
 O   -1.212073700275   -0.494925233826    0.000000000000
 H   -2.858983700275    1.502204766174    0.000000000000
 H   -4.069513700275    0.499344766174    0.882920000000
 H   -4.069513700275    0.499344766174   -0.882920000000
 H   -3.011843700275   -3.797195233826    0.000000000000
 H   -1.657863700275   -3.023525233826    0.908450000000
 H   -1.657863700275   -3.023525233826   -0.908450000000
LI    0.085006299725    0.034714766174    1.302850000000
LI    0.085006299725    0.034714766174   -1.302850000000
 O    1.195957655682    0.488352380022    0.000000000000
 C    2.470569761974    0.604466076858    0.000000000000
 O    3.058205908902    1.755982356780    0.000000000000
 C    2.253391792564    2.989605671144    0.000000000000
 H    2.995741918492    3.790617869949    0.000000000000
 H    1.641756489158    3.016950713168   -0.908446340906
 H    1.641756489158    3.016950713168    0.908446340906
 C    3.399378897596   -0.566198386805    0.000000000000
 H    2.842860518299   -1.508779070675    0.000000000000
 H    4.053399759158   -0.505932441846   -0.882920667399
 H    4.053399759158   -0.505932441846    0.882920667399
