24

 C   -3.457776466306    0.542349335977    0.000000000000
 C   -2.528966466306   -0.628310664023    0.000000000000
 O   -3.116596466306   -1.779830664023    0.000000000000
 C   -2.311776466306   -3.013450664023    0.000000000000
 O   -1.254356466306   -0.512190664023    0.000000000000
 H   -2.901266466306    1.484939335977    0.000000000000
 H   -4.111796466306    0.482079335977    0.882920000000
 H   -4.111796466306    0.482079335977   -0.882920000000
 H   -3.054126466306   -3.814460664023    0.000000000000
 H   -1.700146466306   -3.040790664023    0.908450000000
 H   -1.700146466306   -3.040790664023   -0.908450000000
LI    0.042723533694    0.017449335977    1.302850000000
LI    0.042723533694    0.017449335977   -1.302850000000
 O    1.246254169314    0.508890084311    0.000000000000
 C    2.520866275606    0.625003781148    0.000000000000
 O    3.108502422534    1.776520061069    0.000000000000
 C    2.303688306196    3.010143375434    0.000000000000
 H    3.046038432124    3.811155574239    0.000000000000
 H    1.692053002790    3.037488417457   -0.908446340906
 H    1.692053002790    3.037488417457    0.908446340906
 C    3.449675411228   -0.545660682516    0.000000000000
 H    2.893157031931   -1.488241366386    0.000000000000
 H    4.103696272791   -0.485394737556   -0.882920667399
 H    4.103696272791   -0.485394737556    0.882920667399
