24

 C   -3.584624764399    0.490553045384    0.000000000000
 C   -2.655814764399   -0.680106954616    0.000000000000
 O   -3.243444764399   -1.831626954616    0.000000000000
 C   -2.438624764399   -3.065246954616    0.000000000000
 O   -1.381204764399   -0.563986954616    0.000000000000
 H   -3.028114764399    1.433143045384    0.000000000000
 H   -4.238644764399    0.430283045384    0.882920000000
 H   -4.238644764399    0.430283045384   -0.882920000000
 H   -3.180974764399   -3.866256954616    0.000000000000
 H   -1.826994764399   -3.092586954616    0.908450000000
 H   -1.826994764399   -3.092586954616   -0.908450000000
LI   -0.084124764399   -0.034346954616    1.302850000000
LI   -0.084124764399   -0.034346954616   -1.302850000000
 O    1.397143710210    0.570503197180    0.000000000000
 C    2.671755816503    0.686616894017    0.000000000000
 O    3.259391963430    1.838133173939    0.000000000000
 C    2.454577847092    3.071756488303    0.000000000000
 H    3.196927973020    3.872768687108    0.000000000000
 H    1.842942543686    3.099101530326   -0.908446340906
 H    1.842942543686    3.099101530326    0.908446340906
 C    3.600564952125   -0.484047569647    0.000000000000
 H    3.044046572828   -1.426628253517    0.000000000000
 H    4.254585813687   -0.423781624687   -0.882920667399
 H    4.254585813687   -0.423781624687    0.882920667399
