24

 C   -3.669190296461    0.456022184989    0.000000000000
 C   -2.740380296461   -0.714637815011    0.000000000000
 O   -3.328010296461   -1.866157815011    0.000000000000
 C   -2.523190296461   -3.099777815011    0.000000000000
 O   -1.465770296461   -0.598517815011    0.000000000000
 H   -3.112680296461    1.398612184989    0.000000000000
 H   -4.323210296461    0.395752184989    0.882920000000
 H   -4.323210296461    0.395752184989   -0.882920000000
 H   -3.265540296461   -3.900787815011    0.000000000000
 H   -1.911560296461   -3.127117815011    0.908450000000
 H   -1.911560296461   -3.127117815011   -0.908450000000
LI   -0.168690296461   -0.068877815011    1.302850000000
LI   -0.168690296461   -0.068877815011   -1.302850000000
 O    1.497736737474    0.611578605760    0.000000000000
 C    2.772348843767    0.727692302596    0.000000000000
 O    3.359984990694    1.879208582518    0.000000000000
 C    2.555170874356    3.112831896882    0.000000000000
 H    3.297521000284    3.913844095687    0.000000000000
 H    1.943535570951    3.140176938906   -0.908446340906
 H    1.943535570951    3.140176938906    0.908446340906
 C    3.701157979389   -0.442972161067    0.000000000000
 H    3.144639600092   -1.385552844937    0.000000000000
 H    4.355178840951   -0.382706216108   -0.882920667399
 H    4.355178840951   -0.382706216108    0.882920667399
