24

 C   -3.711473062492    0.438756754791    0.000000000000
 C   -2.782663062492   -0.731903245209    0.000000000000
 O   -3.370293062492   -1.883423245209    0.000000000000
 C   -2.565473062492   -3.117043245209    0.000000000000
 O   -1.508053062492   -0.615783245209    0.000000000000
 H   -3.154963062492    1.381346754791    0.000000000000
 H   -4.365493062492    0.378486754791    0.882920000000
 H   -4.365493062492    0.378486754791   -0.882920000000
 H   -3.307823062492   -3.918053245209    0.000000000000
 H   -1.953843062492   -3.144383245209    0.908450000000
 H   -1.953843062492   -3.144383245209   -0.908450000000
LI   -0.210973062492   -0.086143245209    1.302850000000
LI   -0.210973062492   -0.086143245209   -1.302850000000
 O    1.548033251106    0.632116310049    0.000000000000
 C    2.822645357399    0.748230006886    0.000000000000
 O    3.410281504326    1.899746286808    0.000000000000
 C    2.605467387988    3.133369601172    0.000000000000
 H    3.347817513916    3.934381799977    0.000000000000
 H    1.993832084583    3.160714643196   -0.908446340906
 H    1.993832084583    3.160714643196    0.908446340906
 C    3.751454493021   -0.422434456778    0.000000000000
 H    3.194936113724   -1.365015140647    0.000000000000
 H    4.405475354583   -0.362168511818   -0.882920667399
 H    4.405475354583   -0.362168511818    0.882920667399
