24

 C   -3.880604126616    0.369695034001    0.000000000000
 C   -2.951794126616   -0.800964965999    0.000000000000
 O   -3.539424126616   -1.952484965999    0.000000000000
 C   -2.734604126616   -3.186104965999    0.000000000000
 O   -1.677184126616   -0.684844965999    0.000000000000
 H   -3.324094126616    1.312285034001    0.000000000000
 H   -4.534624126616    0.309425034001    0.882920000000
 H   -4.534624126616    0.309425034001   -0.882920000000
 H   -3.476954126616   -3.987114965999    0.000000000000
 H   -2.122974126616   -3.213444965999    0.908450000000
 H   -2.122974126616   -3.213444965999   -0.908450000000
LI   -0.380104126616   -0.155204965999    1.302850000000
LI   -0.380104126616   -0.155204965999   -1.302850000000
 O    1.749219305635    0.714267127208    0.000000000000
 C    3.023831411927    0.830380824045    0.000000000000
 O    3.611467558854    1.981897103966    0.000000000000
 C    2.806653442516    3.215520418331    0.000000000000
 H    3.549003568445    4.016532617136    0.000000000000
 H    2.195018139111    3.242865460354   -0.908446340906
 H    2.195018139111    3.242865460354    0.908446340906
 C    3.952640547549   -0.340283639619    0.000000000000
 H    3.396122168252   -1.282864323489    0.000000000000
 H    4.606661409111   -0.280017694659   -0.882920667399
 H    4.606661409111   -0.280017694659    0.882920667399
