24

 C   -3.922886892647    0.352429603803    0.000000000000
 C   -2.994076892647   -0.818230396197    0.000000000000
 O   -3.581706892647   -1.969750396197    0.000000000000
 C   -2.776886892647   -3.203370396197    0.000000000000
 O   -1.719466892647   -0.702110396197    0.000000000000
 H   -3.366376892647    1.295019603803    0.000000000000
 H   -4.576906892647    0.292159603803    0.882920000000
 H   -4.576906892647    0.292159603803   -0.882920000000
 H   -3.519236892647   -4.004380396197    0.000000000000
 H   -2.165256892647   -3.230710396197    0.908450000000
 H   -2.165256892647   -3.230710396197   -0.908450000000
LI   -0.422386892647   -0.172470396197    1.302850000000
LI   -0.422386892647   -0.172470396197   -1.302850000000
 O    1.799515819267    0.734804831498    0.000000000000
 C    3.074127925559    0.850918528335    0.000000000000
 O    3.661764072487    2.002434808256    0.000000000000
 C    2.856949956148    3.236058122620    0.000000000000
 H    3.599300082077    4.037070321425    0.000000000000
 H    2.245314652743    3.263403164644   -0.908446340906
 H    2.245314652743    3.263403164644    0.908446340906
 C    4.002937061181   -0.319745935329    0.000000000000
 H    3.446418681884   -1.262326619199    0.000000000000
 H    4.656957922743   -0.259479990370   -0.882920667399
 H    4.656957922743   -0.259479990370    0.882920667399
