24

 C   -4.134300722803    0.266102452815    0.000000000000
 C   -3.205490722803   -0.904557547185    0.000000000000
 O   -3.793120722803   -2.056077547185    0.000000000000
 C   -2.988300722803   -3.289697547185    0.000000000000
 O   -1.930880722803   -0.788437547185    0.000000000000
 H   -3.577790722803    1.208692452815    0.000000000000
 H   -4.788320722803    0.205832452815    0.882920000000
 H   -4.788320722803    0.205832452815   -0.882920000000
 H   -3.730650722803   -4.090707547185    0.000000000000
 H   -2.376670722803   -3.317037547185    0.908450000000
 H   -2.376670722803   -3.317037547185   -0.908450000000
LI   -0.633800722803   -0.258797547185    1.302850000000
LI   -0.633800722803   -0.258797547185   -1.302850000000
 O    2.050998387427    0.837493352946    0.000000000000
 C    3.325610493719    0.953607049783    0.000000000000
 O    3.913246640647    2.105123329705    0.000000000000
 C    3.108432524309    3.338746644069    0.000000000000
 H    3.850782650237    4.139758842874    0.000000000000
 H    2.496797220903    3.366091686093   -0.908446340906
 H    2.496797220903    3.366091686093    0.908446340906
 C    4.254419629341   -0.217057413881    0.000000000000
 H    3.697901250044   -1.159638097750    0.000000000000
 H    4.908440490903   -0.156791468921   -0.882920667399
 H    4.908440490903   -0.156791468921    0.882920667399
