24

 C   -4.176583488834    0.248837022618    0.000000000000
 C   -3.247773488834   -0.921822977382    0.000000000000
 O   -3.835403488834   -2.073342977382    0.000000000000
 C   -3.030583488834   -3.306962977382    0.000000000000
 O   -1.973163488834   -0.805702977382    0.000000000000
 H   -3.620073488834    1.191427022618    0.000000000000
 H   -4.830603488834    0.188567022618    0.882920000000
 H   -4.830603488834    0.188567022618   -0.882920000000
 H   -3.772933488834   -4.107972977382    0.000000000000
 H   -2.418953488834   -3.334302977382    0.908450000000
 H   -2.418953488834   -3.334302977382   -0.908450000000
LI   -0.676083488834   -0.276062977382    1.302850000000
LI   -0.676083488834   -0.276062977382   -1.302850000000
 O    2.101294901059    0.858031057236    0.000000000000
 C    3.375907007351    0.974144754073    0.000000000000
 O    3.963543154279    2.125661033994    0.000000000000
 C    3.158729037941    3.359284348359    0.000000000000
 H    3.901079163869    4.160296547163    0.000000000000
 H    2.547093734535    3.386629390382   -0.908446340906
 H    2.547093734535    3.386629390382    0.908446340906
 C    4.304716142973   -0.196519709591    0.000000000000
 H    3.748197763676   -1.139100393461    0.000000000000
 H    4.958737004536   -0.136253764631   -0.882920667399
 H    4.958737004536   -0.136253764631    0.882920667399
