24

 C   -4.261149020896    0.214306162223    0.000000000000
 C   -3.332339020896   -0.956353837777    0.000000000000
 O   -3.919969020896   -2.107873837777    0.000000000000
 C   -3.115149020896   -3.341493837777    0.000000000000
 O   -2.057729020896   -0.840233837777    0.000000000000
 H   -3.704639020896    1.156896162223    0.000000000000
 H   -4.915169020896    0.154036162223    0.882920000000
 H   -4.915169020896    0.154036162223   -0.882920000000
 H   -3.857499020896   -4.142503837777    0.000000000000
 H   -2.503519020896   -3.368833837777    0.908450000000
 H   -2.503519020896   -3.368833837777   -0.908450000000
LI   -0.760649020896   -0.310593837777    1.302850000000
LI   -0.760649020896   -0.310593837777   -1.302850000000
 O    2.201887928323    0.899106465816    0.000000000000
 C    3.476500034615    1.015220162652    0.000000000000
 O    4.064136181543    2.166736442574    0.000000000000
 C    3.259322065205    3.400359756938    0.000000000000
 H    4.001672191133    4.201371955743    0.000000000000
 H    2.647686761799    3.427704798962   -0.908446340906
 H    2.647686761799    3.427704798962    0.908446340906
 C    4.405309170238   -0.155444301011    0.000000000000
 H    3.848790790941   -1.098024984881    0.000000000000
 H    5.059330031800   -0.095178356052   -0.882920667399
 H    5.059330031800   -0.095178356052    0.882920667399
