24

 C   -4.387997318989    0.162509871630    0.000000000000
 C   -3.459187318989   -1.008150128370    0.000000000000
 O   -4.046817318989   -2.159670128370    0.000000000000
 C   -3.241997318989   -3.393290128370    0.000000000000
 O   -2.184577318989   -0.892030128370    0.000000000000
 H   -3.831487318989    1.105099871630    0.000000000000
 H   -5.042017318989    0.102239871630    0.882920000000
 H   -5.042017318989    0.102239871630   -0.882920000000
 H   -3.984347318989   -4.194300128370    0.000000000000
 H   -2.630367318989   -3.420630128370    0.908450000000
 H   -2.630367318989   -3.420630128370   -0.908450000000
LI   -0.887497318989   -0.362390128370    1.302850000000
LI   -0.887497318989   -0.362390128370   -1.302850000000
 O    2.352777469219    0.960719578685    0.000000000000
 C    3.627389575512    1.076833275521    0.000000000000
 O    4.215025722439    2.228349555443    0.000000000000
 C    3.410211606101    3.461972869807    0.000000000000
 H    4.152561732029    4.262985068612    0.000000000000
 H    2.798576302696    3.489317911831   -0.908446340906
 H    2.798576302696    3.489317911831    0.908446340906
 C    4.556198711134   -0.093831188142    0.000000000000
 H    3.999680331837   -1.036411872012    0.000000000000
 H    5.210219572696   -0.033565243183   -0.882920667399
 H    5.210219572696   -0.033565243183    0.882920667399
