24

 C   -4.641693915175    0.058917290444    0.000000000000
 C   -3.712883915175   -1.111742709556    0.000000000000
 O   -4.300513915175   -2.263262709556    0.000000000000
 C   -3.495693915175   -3.496882709556    0.000000000000
 O   -2.438273915175   -0.995622709556    0.000000000000
 H   -4.085183915175    1.001507290444    0.000000000000
 H   -5.295713915175   -0.001352709556    0.882920000000
 H   -5.295713915175   -0.001352709556   -0.882920000000
 H   -4.238043915175   -4.297892709556    0.000000000000
 H   -2.884063915175   -3.524222709556    0.908450000000
 H   -2.884063915175   -3.524222709556   -0.908450000000
LI   -1.141193915175   -0.465982709556    1.302850000000
LI   -1.141193915175   -0.465982709556   -1.302850000000
 O    2.654556551012    1.083945804423    0.000000000000
 C    3.929168657304    1.200059501260    0.000000000000
 O    4.516804804232    2.351575781181    0.000000000000
 C    3.711990687893    3.585199095545    0.000000000000
 H    4.454340813822    4.386211294350    0.000000000000
 H    3.100355384488    3.612544137569   -0.908446340906
 H    3.100355384488    3.612544137569    0.908446340906
 C    4.857977792926    0.029395037596    0.000000000000
 H    4.301459413629   -0.913185646274    0.000000000000
 H    5.511998654488    0.089660982555   -0.882920667399
 H    5.511998654488    0.089660982555    0.882920667399
