24

 C   -4.683976681206    0.041651860247    0.000000000000
 C   -3.755166681206   -1.129008139753    0.000000000000
 O   -4.342796681206   -2.280528139753    0.000000000000
 C   -3.537976681206   -3.514148139753    0.000000000000
 O   -2.480556681206   -1.012888139753    0.000000000000
 H   -4.127466681206    0.984241860247    0.000000000000
 H   -5.337996681206   -0.018618139753    0.882920000000
 H   -5.337996681206   -0.018618139753   -0.882920000000
 H   -4.280326681206   -4.315158139753    0.000000000000
 H   -2.926346681206   -3.541488139753    0.908450000000
 H   -2.926346681206   -3.541488139753   -0.908450000000
LI   -1.183476681206   -0.483248139753    1.302850000000
LI   -1.183476681206   -0.483248139753   -1.302850000000
 O    2.704853064644    1.104483508713    0.000000000000
 C    3.979465170936    1.220597205549    0.000000000000
 O    4.567101317864    2.372113485471    0.000000000000
 C    3.762287201526    3.605736799835    0.000000000000
 H    4.504637327454    4.406748998640    0.000000000000
 H    3.150651898120    3.633081841859   -0.908446340906
 H    3.150651898120    3.633081841859    0.908446340906
 C    4.908274306558    0.049932741886    0.000000000000
 H    4.351755927261   -0.892647941984    0.000000000000
 H    5.562295168120    0.110198686845   -0.882920667399
 H    5.562295168120    0.110198686845    0.882920667399
