24

 C   -4.726259447237    0.024386430049    0.000000000000
 C   -3.797449447237   -1.146273569951    0.000000000000
 O   -4.385079447237   -2.297793569951    0.000000000000
 C   -3.580259447237   -3.531413569951    0.000000000000
 O   -2.522839447237   -1.030153569951    0.000000000000
 H   -4.169749447237    0.966976430049    0.000000000000
 H   -5.380279447237   -0.035883569951    0.882920000000
 H   -5.380279447237   -0.035883569951   -0.882920000000
 H   -4.322609447237   -4.332423569951    0.000000000000
 H   -2.968629447237   -3.558753569951    0.908450000000
 H   -2.968629447237   -3.558753569951   -0.908450000000
LI   -1.225759447237   -0.500513569951    1.302850000000
LI   -1.225759447237   -0.500513569951   -1.302850000000
 O    2.755149578276    1.125021213002    0.000000000000
 C    4.029761684568    1.241134909839    0.000000000000
 O    4.617397831496    2.392651189760    0.000000000000
 C    3.812583715158    3.626274504125    0.000000000000
 H    4.554933841086    4.427286702930    0.000000000000
 H    3.200948411752    3.653619546148   -0.908446340906
 H    3.200948411752    3.653619546148    0.908446340906
 C    4.958570820190    0.070470446175    0.000000000000
 H    4.402052440893   -0.872110237695    0.000000000000
 H    5.612591681752    0.130736391135   -0.882920667399
 H    5.612591681752    0.130736391135    0.882920667399
