24

 C   -4.768542213268    0.007120999852    0.000000000000
 C   -3.839732213268   -1.163539000148    0.000000000000
 O   -4.427362213268   -2.315059000148    0.000000000000
 C   -3.622542213268   -3.548679000148    0.000000000000
 O   -2.565122213268   -1.047419000148    0.000000000000
 H   -4.212032213268    0.949710999852    0.000000000000
 H   -5.422562213268   -0.053149000148    0.882920000000
 H   -5.422562213268   -0.053149000148   -0.882920000000
 H   -4.364892213268   -4.349689000148    0.000000000000
 H   -3.010912213268   -3.576019000148    0.908450000000
 H   -3.010912213268   -3.576019000148   -0.908450000000
LI   -1.268042213268   -0.517779000148    1.302850000000
LI   -1.268042213268   -0.517779000148   -1.302850000000
 O    2.805446091908    1.145558917292    0.000000000000
 C    4.080058198200    1.261672614129    0.000000000000
 O    4.667694345128    2.413188894050    0.000000000000
 C    3.862880228790    3.646812208414    0.000000000000
 H    4.605230354718    4.447824407219    0.000000000000
 H    3.251244925384    3.674157250438   -0.908446340906
 H    3.251244925384    3.674157250438    0.908446340906
 C    5.008867333822    0.091008150465    0.000000000000
 H    4.452348954525   -0.851572533405    0.000000000000
 H    5.662888195384    0.151274095424   -0.882920667399
 H    5.662888195384    0.151274095424    0.882920667399
