24

 C   -4.810824979299   -0.010144430346    0.000000000000
 C   -3.882014979299   -1.180804430346    0.000000000000
 O   -4.469644979299   -2.332324430346    0.000000000000
 C   -3.664824979299   -3.565944430346    0.000000000000
 O   -2.607404979299   -1.064684430346    0.000000000000
 H   -4.254314979299    0.932445569654    0.000000000000
 H   -5.464844979299   -0.070414430346    0.882920000000
 H   -5.464844979299   -0.070414430346   -0.882920000000
 H   -4.407174979299   -4.366954430346    0.000000000000
 H   -3.053194979299   -3.593284430346    0.908450000000
 H   -3.053194979299   -3.593284430346   -0.908450000000
LI   -1.310324979299   -0.535044430346    1.302850000000
LI   -1.310324979299   -0.535044430346   -1.302850000000
 O    2.855742605540    1.166096621582    0.000000000000
 C    4.130354711832    1.282210318418    0.000000000000
 O    4.717990858760    2.433726598340    0.000000000000
 C    3.913176742422    3.667349912704    0.000000000000
 H    4.655526868350    4.468362111509    0.000000000000
 H    3.301541439016    3.694694954728   -0.908446340906
 H    3.301541439016    3.694694954728    0.908446340906
 C    5.059163847454    0.111545854755    0.000000000000
 H    4.502645468157   -0.831034829115    0.000000000000
 H    5.713184709016    0.171811799714   -0.882920667399
 H    5.713184709016    0.171811799714    0.882920667399
