24

 C   -4.895390511361   -0.044675290741    0.000000000000
 C   -3.966580511361   -1.215335290741    0.000000000000
 O   -4.554210511361   -2.366855290741    0.000000000000
 C   -3.749390511361   -3.600475290741    0.000000000000
 O   -2.691970511361   -1.099215290741    0.000000000000
 H   -4.338880511361    0.897914709259    0.000000000000
 H   -5.549410511361   -0.104945290741    0.882920000000
 H   -5.549410511361   -0.104945290741   -0.882920000000
 H   -4.491740511361   -4.401485290741    0.000000000000
 H   -3.137760511361   -3.627815290741    0.908450000000
 H   -3.137760511361   -3.627815290741   -0.908450000000
LI   -1.394890511361   -0.569575290741    1.302850000000
LI   -1.394890511361   -0.569575290741   -1.302850000000
 O    2.956335632804    1.207172030161    0.000000000000
 C    4.230947739096    1.323285726998    0.000000000000
 O    4.818583886024    2.474802006919    0.000000000000
 C    4.013769769686    3.708425321283    0.000000000000
 H    4.756119895614    4.509437520088    0.000000000000
 H    3.402134466280    3.735770363307   -0.908446340906
 H    3.402134466280    3.735770363307    0.908446340906
 C    5.159756874718    0.152621263334    0.000000000000
 H    4.603238495421   -0.789959420536    0.000000000000
 H    5.813777736281    0.212887208294   -0.882920667399
 H    5.813777736281    0.212887208294    0.882920667399
