24

 C   -4.979956043423   -0.079206151136    0.000000000000
 C   -4.051146043423   -1.249866151136    0.000000000000
 O   -4.638776043423   -2.401386151136    0.000000000000
 C   -3.833956043423   -3.635006151136    0.000000000000
 O   -2.776536043423   -1.133746151136    0.000000000000
 H   -4.423446043423    0.863383848864    0.000000000000
 H   -5.633976043423   -0.139476151136    0.882920000000
 H   -5.633976043423   -0.139476151136   -0.882920000000
 H   -4.576306043423   -4.436016151136    0.000000000000
 H   -3.222326043423   -3.662346151136    0.908450000000
 H   -3.222326043423   -3.662346151136   -0.908450000000
LI   -1.479456043423   -0.604106151136    1.302850000000
LI   -1.479456043423   -0.604106151136   -1.302850000000
 O    3.056928660068    1.248247438741    0.000000000000
 C    4.331540766361    1.364361135577    0.000000000000
 O    4.919176913288    2.515877415499    0.000000000000
 C    4.114362796950    3.749500729863    0.000000000000
 H    4.856712922878    4.550512928668    0.000000000000
 H    3.502727493544    3.776845771887   -0.908446340906
 H    3.502727493544    3.776845771887    0.908446340906
 C    5.260349901983    0.193696671913    0.000000000000
 H    4.703831522686   -0.748884011956    0.000000000000
 H    5.914370763545    0.253962616873   -0.882920667399
 H    5.914370763545    0.253962616873    0.882920667399
