24

 C   -5.022238809454   -0.096471581334    0.000000000000
 C   -4.093428809454   -1.267131581334    0.000000000000
 O   -4.681058809454   -2.418651581334    0.000000000000
 C   -3.876238809454   -3.652271581334    0.000000000000
 O   -2.818818809454   -1.151011581334    0.000000000000
 H   -4.465728809454    0.846118418666    0.000000000000
 H   -5.676258809454   -0.156741581334    0.882920000000
 H   -5.676258809454   -0.156741581334   -0.882920000000
 H   -4.618588809454   -4.453281581334    0.000000000000
 H   -3.264608809454   -3.679611581334    0.908450000000
 H   -3.264608809454   -3.679611581334   -0.908450000000
LI   -1.521738809454   -0.621371581334    1.302850000000
LI   -1.521738809454   -0.621371581334   -1.302850000000
 O    3.107225173700    1.268785143030    0.000000000000
 C    4.381837279993    1.384898839867    0.000000000000
 O    4.969473426920    2.536415119788    0.000000000000
 C    4.164659310582    3.770038434153    0.000000000000
 H    4.907009436510    4.571050632957    0.000000000000
 H    3.553024007177    3.797383476176   -0.908446340906
 H    3.553024007177    3.797383476176    0.908446340906
 C    5.310646415615    0.214234376203    0.000000000000
 H    4.754128036318   -0.728346307667    0.000000000000
 H    5.964667277177    0.274500321163   -0.882920667399
 H    5.964667277177    0.274500321163    0.882920667399
