24

 C   -5.064521575485   -0.113737011531    0.000000000000
 C   -4.135711575485   -1.284397011531    0.000000000000
 O   -4.723341575485   -2.435917011531    0.000000000000
 C   -3.918521575485   -3.669537011531    0.000000000000
 O   -2.861101575485   -1.168277011531    0.000000000000
 H   -4.508011575485    0.828852988469    0.000000000000
 H   -5.718541575485   -0.174007011531    0.882920000000
 H   -5.718541575485   -0.174007011531   -0.882920000000
 H   -4.660871575485   -4.470547011531    0.000000000000
 H   -3.306891575485   -3.696877011531    0.908450000000
 H   -3.306891575485   -3.696877011531   -0.908450000000
LI   -1.564021575485   -0.638637011531    1.302850000000
LI   -1.564021575485   -0.638637011531   -1.302850000000
 O    3.157521687332    1.289322847320    0.000000000000
 C    4.432133793625    1.405436544157    0.000000000000
 O    5.019769940552    2.556952824078    0.000000000000
 C    4.214955824214    3.790576138442    0.000000000000
 H    4.957305950142    4.591588337247    0.000000000000
 H    3.603320520809    3.817921180466   -0.908446340906
 H    3.603320520809    3.817921180466    0.908446340906
 C    5.360942929247    0.234772080493    0.000000000000
 H    4.804424549950   -0.707808603377    0.000000000000
 H    6.014963790809    0.295038025452   -0.882920667399
 H    6.014963790809    0.295038025452    0.882920667399
