24

 C   -5.191369873578   -0.165533302124    0.000000000000
 C   -4.262559873578   -1.336193302124    0.000000000000
 O   -4.850189873578   -2.487713302124    0.000000000000
 C   -4.045369873578   -3.721333302124    0.000000000000
 O   -2.987949873578   -1.220073302124    0.000000000000
 H   -4.634859873578    0.777056697876    0.000000000000
 H   -5.845389873578   -0.225803302124    0.882920000000
 H   -5.845389873578   -0.225803302124   -0.882920000000
 H   -4.787719873578   -4.522343302124    0.000000000000
 H   -3.433739873578   -3.748673302124    0.908450000000
 H   -3.433739873578   -3.748673302124   -0.908450000000
LI   -1.690869873578   -0.690433302124    1.302850000000
LI   -1.690869873578   -0.690433302124   -1.302850000000
 O    3.308411228229    1.350935960189    0.000000000000
 C    4.583023334521    1.467049657026    0.000000000000
 O    5.170659481448    2.618565936947    0.000000000000
 C    4.365845365110    3.852189251311    0.000000000000
 H    5.108195491039    4.653201450116    0.000000000000
 H    3.754210061705    3.879534293335   -0.908446340906
 H    3.754210061705    3.879534293335    0.908446340906
 C    5.511832470143    0.296385193362    0.000000000000
 H    4.955314090846   -0.646195490508    0.000000000000
 H    6.165853331705    0.356651138321   -0.882920667399
 H    6.165853331705    0.356651138321    0.882920667399
