24

 C   -5.318218171671   -0.217329592717    0.000000000000
 C   -4.389408171671   -1.387989592717    0.000000000000
 O   -4.977038171671   -2.539509592717    0.000000000000
 C   -4.172218171671   -3.773129592717    0.000000000000
 O   -3.114798171671   -1.271869592717    0.000000000000
 H   -4.761708171671    0.725260407283    0.000000000000
 H   -5.972238171671   -0.277599592717    0.882920000000
 H   -5.972238171671   -0.277599592717   -0.882920000000
 H   -4.914568171671   -4.574139592717    0.000000000000
 H   -3.560588171671   -3.800469592717    0.908450000000
 H   -3.560588171671   -3.800469592717   -0.908450000000
LI   -1.817718171671   -0.742229592717    1.302850000000
LI   -1.817718171671   -0.742229592717   -1.302850000000
 O    3.459300769125    1.412549073058    0.000000000000
 C    4.733912875417    1.528662769895    0.000000000000
 O    5.321549022344    2.680179049816    0.000000000000
 C    4.516734906006    3.913802364180    0.000000000000
 H    5.259085031935    4.714814562985    0.000000000000
 H    3.905099602601    3.941147406204   -0.908446340906
 H    3.905099602601    3.941147406204    0.908446340906
 C    5.662722011039    0.357998306231    0.000000000000
 H    5.106203631742   -0.584582377639    0.000000000000
 H    6.316742872601    0.418264251191   -0.882920667399
 H    6.316742872601    0.418264251191    0.882920667399
