24

 C   -5.487349235796   -0.286391313507    0.000000000000
 C   -4.558539235796   -1.457051313507    0.000000000000
 O   -5.146169235796   -2.608571313507    0.000000000000
 C   -4.341349235796   -3.842191313507    0.000000000000
 O   -3.283929235796   -1.340931313507    0.000000000000
 H   -4.930839235796    0.656198686493    0.000000000000
 H   -6.141369235796   -0.346661313507    0.882920000000
 H   -6.141369235796   -0.346661313507   -0.882920000000
 H   -5.083699235796   -4.643201313507    0.000000000000
 H   -3.729719235796   -3.869531313507    0.908450000000
 H   -3.729719235796   -3.869531313507   -0.908450000000
LI   -1.986849235796   -0.811291313507    1.302850000000
LI   -1.986849235796   -0.811291313507   -1.302850000000
 O    3.660486823653    1.494699890217    0.000000000000
 C    4.935098929945    1.610813587054    0.000000000000
 O    5.522735076873    2.762329866975    0.000000000000
 C    4.717920960535    3.995953181339    0.000000000000
 H    5.460271086463    4.796965380144    0.000000000000
 H    4.106285657129    4.023298223363   -0.908446340906
 H    4.106285657129    4.023298223363    0.908446340906
 C    5.863908065567    0.440149123390    0.000000000000
 H    5.307389686270   -0.502431560480    0.000000000000
 H    6.517928927129    0.500415068349   -0.882920667399
 H    6.517928927129    0.500415068349    0.882920667399
