24

 C   -5.529632001827   -0.303656743705    0.000000000000
 C   -4.600822001827   -1.474316743705    0.000000000000
 O   -5.188452001827   -2.625836743705    0.000000000000
 C   -4.383632001827   -3.859456743705    0.000000000000
 O   -3.326212001827   -1.358196743705    0.000000000000
 H   -4.973122001827    0.638933256295    0.000000000000
 H   -6.183652001827   -0.363926743705    0.882920000000
 H   -6.183652001827   -0.363926743705   -0.882920000000
 H   -5.125982001827   -4.660466743705    0.000000000000
 H   -3.772002001827   -3.886796743705    0.908450000000
 H   -3.772002001827   -3.886796743705   -0.908450000000
LI   -2.029132001827   -0.828556743705    1.302850000000
LI   -2.029132001827   -0.828556743705   -1.302850000000
 O    3.710783337285    1.515237594507    0.000000000000
 C    4.985395443577    1.631351291343    0.000000000000
 O    5.573031590505    2.782867571265    0.000000000000
 C    4.768217474167    4.016490885629    0.000000000000
 H    5.510567600095    4.817503084434    0.000000000000
 H    4.156582170761    4.043835927653   -0.908446340906
 H    4.156582170761    4.043835927653    0.908446340906
 C    5.914204579199    0.460686827680    0.000000000000
 H    5.357686199902   -0.481893856190    0.000000000000
 H    6.568225440761    0.520952772639   -0.882920667399
 H    6.568225440761    0.520952772639    0.882920667399
