24

 C   -5.783328598013   -0.407249324890    0.000000000000
 C   -4.854518598013   -1.577909324890    0.000000000000
 O   -5.442148598013   -2.729429324890    0.000000000000
 C   -4.637328598013   -3.963049324890    0.000000000000
 O   -3.579908598013   -1.461789324890    0.000000000000
 H   -5.226818598013    0.535340675110    0.000000000000
 H   -6.437348598013   -0.467519324890    0.882920000000
 H   -6.437348598013   -0.467519324890   -0.882920000000
 H   -5.379678598013   -4.764059324890    0.000000000000
 H   -4.025698598013   -3.990389324890    0.908450000000
 H   -4.025698598013   -3.990389324890   -0.908450000000
LI   -2.282828598013   -0.932149324890    1.302850000000
LI   -2.282828598013   -0.932149324890   -1.302850000000
 O    4.012562419077    1.638463820245    0.000000000000
 C    5.287174525370    1.754577517081    0.000000000000
 O    5.874810672297    2.906093797003    0.000000000000
 C    5.069996555959    4.139717111367    0.000000000000
 H    5.812346681887    4.940729310172    0.000000000000
 H    4.458361252554    4.167062153391   -0.908446340906
 H    4.458361252554    4.167062153391    0.908446340906
 C    6.215983660992    0.583913053418    0.000000000000
 H    5.659465281695   -0.358667630452    0.000000000000
 H    6.870004522554    0.644178998377   -0.882920667399
 H    6.870004522554    0.644178998377    0.882920667399
