24

 C   -5.910176896106   -0.459045615483    0.000000000000
 C   -4.981366896106   -1.629705615483    0.000000000000
 O   -5.568996896106   -2.781225615483    0.000000000000
 C   -4.764176896106   -4.014845615483    0.000000000000
 O   -3.706756896106   -1.513585615483    0.000000000000
 H   -5.353666896106    0.483544384517    0.000000000000
 H   -6.564196896106   -0.519315615483    0.882920000000
 H   -6.564196896106   -0.519315615483   -0.882920000000
 H   -5.506526896106   -4.815855615483    0.000000000000
 H   -4.152546896106   -4.042185615483    0.908450000000
 H   -4.152546896106   -4.042185615483   -0.908450000000
LI   -2.409676896106   -0.983945615483    1.302850000000
LI   -2.409676896106   -0.983945615483   -1.302850000000
 O    4.163451959974    1.700076933114    0.000000000000
 C    5.438064066266    1.816190629951    0.000000000000
 O    6.025700213193    2.967706909872    0.000000000000
 C    5.220886096855    4.201330224236    0.000000000000
 H    5.963236222784    5.002342423041    0.000000000000
 H    4.609250793450    4.228675266260   -0.908446340906
 H    4.609250793450    4.228675266260    0.908446340906
 C    6.366873201888    0.645526166287    0.000000000000
 H    5.810354822591   -0.297054517583    0.000000000000
 H    7.020894063450    0.705792111246   -0.882920667399
 H    7.020894063450    0.705792111246    0.882920667399
