24

 C   -5.952459662137   -0.476311045680    0.000000000000
 C   -5.023649662137   -1.646971045680    0.000000000000
 O   -5.611279662137   -2.798491045680    0.000000000000
 C   -4.806459662137   -4.032111045680    0.000000000000
 O   -3.749039662137   -1.530851045680    0.000000000000
 H   -5.395949662137    0.466278954320    0.000000000000
 H   -6.606479662137   -0.536581045680    0.882920000000
 H   -6.606479662137   -0.536581045680   -0.882920000000
 H   -5.548809662137   -4.833121045680    0.000000000000
 H   -4.194829662137   -4.059451045680    0.908450000000
 H   -4.194829662137   -4.059451045680   -0.908450000000
LI   -2.451959662137   -1.001211045680    1.302850000000
LI   -2.451959662137   -1.001211045680   -1.302850000000
 O    4.213748473606    1.720614637404    0.000000000000
 C    5.488360579898    1.836728334240    0.000000000000
 O    6.075996726825    2.988244614162    0.000000000000
 C    5.271182610487    4.221867928526    0.000000000000
 H    6.013532736416    5.022880127331    0.000000000000
 H    4.659547307082    4.249212970550   -0.908446340906
 H    4.659547307082    4.249212970550    0.908446340906
 C    6.417169715520    0.666063870577    0.000000000000
 H    5.860651336223   -0.276516813293    0.000000000000
 H    7.071190577082    0.726329815536   -0.882920667399
 H    7.071190577082    0.726329815536    0.882920667399
