24

 C   -6.037025194199   -0.510841906076    0.000000000000
 C   -5.108215194199   -1.681501906076    0.000000000000
 O   -5.695845194199   -2.833021906076    0.000000000000
 C   -4.891025194199   -4.066641906076    0.000000000000
 O   -3.833605194199   -1.565381906076    0.000000000000
 H   -5.480515194199    0.431748093924    0.000000000000
 H   -6.691045194199   -0.571111906076    0.882920000000
 H   -6.691045194199   -0.571111906076   -0.882920000000
 H   -5.633375194199   -4.867651906076    0.000000000000
 H   -4.279395194199   -4.093981906076    0.908450000000
 H   -4.279395194199   -4.093981906076   -0.908450000000
LI   -2.536525194199   -1.035741906076    1.302850000000
LI   -2.536525194199   -1.035741906076   -1.302850000000
 O    4.314341500870    1.761690045983    0.000000000000
 C    5.588953607162    1.877803742820    0.000000000000
 O    6.176589754090    3.029320022741    0.000000000000
 C    5.371775637751    4.262943337105    0.000000000000
 H    6.114125763680    5.063955535910    0.000000000000
 H    4.760140334346    4.290288379129   -0.908446340906
 H    4.760140334346    4.290288379129    0.908446340906
 C    6.517762742784    0.707139279156    0.000000000000
 H    5.961244363487   -0.235441404714    0.000000000000
 H    7.171783604346    0.767405224115   -0.882920667399
 H    7.171783604346    0.767405224115    0.882920667399
