24

 C   -6.163873492292   -0.562638196668    0.000000000000
 C   -5.235063492292   -1.733298196668    0.000000000000
 O   -5.822693492292   -2.884818196668    0.000000000000
 C   -5.017873492292   -4.118438196668    0.000000000000
 O   -3.960453492292   -1.617178196668    0.000000000000
 H   -5.607363492292    0.379951803332    0.000000000000
 H   -6.817893492292   -0.622908196668    0.882920000000
 H   -6.817893492292   -0.622908196668   -0.882920000000
 H   -5.760223492292   -4.919448196668    0.000000000000
 H   -4.406243492292   -4.145778196668    0.908450000000
 H   -4.406243492292   -4.145778196668   -0.908450000000
LI   -2.663373492292   -1.087538196668    1.302850000000
LI   -2.663373492292   -1.087538196668   -1.302850000000
 O    4.465231041766    1.823303158852    0.000000000000
 C    5.739843148058    1.939416855689    0.000000000000
 O    6.327479294986    3.090933135610    0.000000000000
 C    5.522665178648    4.324556449974    0.000000000000
 H    6.265015304576    5.125568648779    0.000000000000
 H    4.911029875242    4.351901491998   -0.908446340906
 H    4.911029875242    4.351901491998    0.908446340906
 C    6.668652283680    0.768752392025    0.000000000000
 H    6.112133904383   -0.173828291845    0.000000000000
 H    7.322673145242    0.829018336985   -0.882920667399
 H    7.322673145242    0.829018336985    0.882920667399
