24

 C   -6.333004556416   -0.631699917459    0.000000000000
 C   -5.404194556416   -1.802359917459    0.000000000000
 O   -5.991824556416   -2.953879917459    0.000000000000
 C   -5.187004556416   -4.187499917459    0.000000000000
 O   -4.129584556416   -1.686239917459    0.000000000000
 H   -5.776494556416    0.310890082541    0.000000000000
 H   -6.987024556416   -0.691969917459    0.882920000000
 H   -6.987024556416   -0.691969917459   -0.882920000000
 H   -5.929354556416   -4.988509917459    0.000000000000
 H   -4.575374556416   -4.214839917459    0.908450000000
 H   -4.575374556416   -4.214839917459   -0.908450000000
LI   -2.832504556416   -1.156599917459    1.302850000000
LI   -2.832504556416   -1.156599917459   -1.302850000000
 O    4.666417096294    1.905453976011    0.000000000000
 C    5.941029202586    2.021567672848    0.000000000000
 O    6.528665349514    3.173083952769    0.000000000000
 C    5.723851233176    4.406707267133    0.000000000000
 H    6.466201359104    5.207719465938    0.000000000000
 H    5.112215929770    4.434052309157   -0.908446340906
 H    5.112215929770    4.434052309157    0.908446340906
 C    6.869838338209    0.850903209184    0.000000000000
 H    6.313319958912   -0.091677474686    0.000000000000
 H    7.523859199771    0.911169154143   -0.882920667399
 H    7.523859199771    0.911169154143    0.882920667399
