24

 C   -6.459852854509   -0.683496208051    0.000000000000
 C   -5.531042854509   -1.854156208051    0.000000000000
 O   -6.118672854509   -3.005676208051    0.000000000000
 C   -5.313852854509   -4.239296208051    0.000000000000
 O   -4.256432854509   -1.738036208051    0.000000000000
 H   -5.903342854509    0.259093791949    0.000000000000
 H   -7.113872854509   -0.743766208051    0.882920000000
 H   -7.113872854509   -0.743766208051   -0.882920000000
 H   -6.056202854509   -5.040306208051    0.000000000000
 H   -4.702222854509   -4.266636208051    0.908450000000
 H   -4.702222854509   -4.266636208051   -0.908450000000
LI   -2.959352854509   -1.208396208051    1.302850000000
LI   -2.959352854509   -1.208396208051   -1.302850000000
 O    4.817306637190    1.967067088880    0.000000000000
 C    6.091918743483    2.083180785717    0.000000000000
 O    6.679554890410    3.234697065638    0.000000000000
 C    5.874740774072    4.468320380002    0.000000000000
 H    6.617090900000    5.269332578807    0.000000000000
 H    5.263105470667    4.495665422026   -0.908446340906
 H    5.263105470667    4.495665422026    0.908446340906
 C    7.020727879105    0.912516322053    0.000000000000
 H    6.464209499808   -0.030064361817    0.000000000000
 H    7.674748740667    0.972782267012   -0.882920667399
 H    7.674748740667    0.972782267012    0.882920667399
