24

 C   -6.586701152602   -0.735292498644    0.000000000000
 C   -5.657891152602   -1.905952498644    0.000000000000
 O   -6.245521152602   -3.057472498644    0.000000000000
 C   -5.440701152602   -4.291092498644    0.000000000000
 O   -4.383281152602   -1.789832498644    0.000000000000
 H   -6.030191152602    0.207297501356    0.000000000000
 H   -7.240721152602   -0.795562498644    0.882920000000
 H   -7.240721152602   -0.795562498644   -0.882920000000
 H   -6.183051152602   -5.092102498644    0.000000000000
 H   -4.829071152602   -4.318432498644    0.908450000000
 H   -4.829071152602   -4.318432498644   -0.908450000000
LI   -3.086201152602   -1.260192498644    1.302850000000
LI   -3.086201152602   -1.260192498644   -1.302850000000
 O    4.968196178086    2.028680201749    0.000000000000
 C    6.242808284379    2.144793898586    0.000000000000
 O    6.830444431306    3.296310178507    0.000000000000
 C    6.025630314968    4.529933492871    0.000000000000
 H    6.767980440897    5.330945691676    0.000000000000
 H    5.413995011563    4.557278534895   -0.908446340906
 H    5.413995011563    4.557278534895    0.908446340906
 C    7.171617420001    0.974129434922    0.000000000000
 H    6.615099040704    0.031548751052    0.000000000000
 H    7.825638281563    1.034395379882   -0.882920667399
 H    7.825638281563    1.034395379882    0.882920667399
