24

 C   -6.628983918633   -0.752557928842    0.000000000000
 C   -5.700173918633   -1.923217928842    0.000000000000
 O   -6.287803918633   -3.074737928842    0.000000000000
 C   -5.482983918633   -4.308357928842    0.000000000000
 O   -4.425563918633   -1.807097928842    0.000000000000
 H   -6.072473918633    0.190032071158    0.000000000000
 H   -7.283003918633   -0.812827928842    0.882920000000
 H   -7.283003918633   -0.812827928842   -0.882920000000
 H   -6.225333918633   -5.109367928842    0.000000000000
 H   -4.871353918633   -4.335697928842    0.908450000000
 H   -4.871353918633   -4.335697928842   -0.908450000000
LI   -3.128483918633   -1.277457928842    1.302850000000
LI   -3.128483918633   -1.277457928842   -1.302850000000
 O    5.018492691719    2.049217906039    0.000000000000
 C    6.293104798011    2.165331602875    0.000000000000
 O    6.880740944938    3.316847882797    0.000000000000
 C    6.075926828600    4.550471197161    0.000000000000
 H    6.818276954529    5.351483395966    0.000000000000
 H    5.464291525195    4.577816239185   -0.908446340906
 H    5.464291525195    4.577816239185    0.908446340906
 C    7.221913933633    0.994667139212    0.000000000000
 H    6.665395554336    0.052086455342    0.000000000000
 H    7.875934795195    1.054933084171   -0.882920667399
 H    7.875934795195    1.054933084171    0.882920667399
