24

 C   -6.840397748789   -0.838885079830    0.000000000000
 C   -5.911587748789   -2.009545079830    0.000000000000
 O   -6.499217748789   -3.161065079830    0.000000000000
 C   -5.694397748789   -4.394685079830    0.000000000000
 O   -4.636977748789   -1.893425079830    0.000000000000
 H   -6.283887748789    0.103704920170    0.000000000000
 H   -7.494417748789   -0.899155079830    0.882920000000
 H   -7.494417748789   -0.899155079830   -0.882920000000
 H   -6.436747748789   -5.195695079830    0.000000000000
 H   -5.082767748789   -4.422025079830    0.908450000000
 H   -5.082767748789   -4.422025079830   -0.908450000000
LI   -3.339897748789   -1.363785079830    1.302850000000
LI   -3.339897748789   -1.363785079830   -1.302850000000
 O    5.269975259879    2.151906427487    0.000000000000
 C    6.544587366171    2.268020124324    0.000000000000
 O    7.132223513099    3.419536404245    0.000000000000
 C    6.327409396761    4.653159718610    0.000000000000
 H    7.069759522689    5.454171917415    0.000000000000
 H    5.715774093355    4.680504760633   -0.908446340906
 H    5.715774093355    4.680504760633    0.908446340906
 C    7.473396501793    1.097355660660    0.000000000000
 H    6.916878122496    0.154774976790    0.000000000000
 H    8.127417363355    1.157621605620   -0.882920667399
 H    8.127417363355    1.157621605620    0.882920667399
