14

 C    0.377766695254   -2.490809422091    0.000000000000
 H    0.385488695254   -3.583984422091    0.000000000000
 C    1.588242695254   -1.770970422091    0.000000000000
 H    2.543261695254   -2.304669422091    0.000000000000
 C   -0.842057304746   -1.790803422091    0.000000000000
 H   -1.790189304746   -2.336615422091    0.000000000000
 C    1.585834695254   -0.365825422091    0.000000000000
 H    2.517188695254    0.206713577909    0.000000000000
 C   -0.855908304746   -0.383322422091    0.000000000000
 H   -1.807907304746    0.159398577909    0.000000000000
 C    0.360368695254    0.324459577909    0.000000000000
 O    0.420915695254    1.704920577909    0.000000000000
 H   -0.482215304746    2.053347577909    0.000000000000
NA   -1.508487949083    2.449282496153    0.000000000000
