14

 C    0.414421541918   -2.504950823790    0.000000000000
 H    0.422143541918   -3.598125823790    0.000000000000
 C    1.624897541918   -1.785111823790    0.000000000000
 H    2.579916541918   -2.318810823790    0.000000000000
 C   -0.805402458082   -1.804944823790    0.000000000000
 H   -1.753534458082   -2.350756823790    0.000000000000
 C    1.622489541918   -0.379966823790    0.000000000000
 H    2.553843541918    0.192572176210    0.000000000000
 C   -0.819253458082   -0.397463823790    0.000000000000
 H   -1.771252458082    0.145257176210    0.000000000000
 C    0.397023541918    0.310318176210    0.000000000000
 O    0.457570541918    1.690779176210    0.000000000000
 H   -0.445560458082    2.039206176210    0.000000000000
NA   -1.658428128663    2.507129261407    0.000000000000
