14

 C    0.432748965249   -2.512021524640    0.000000000000
 H    0.440470965249   -3.605196524640    0.000000000000
 C    1.643224965249   -1.792182524640    0.000000000000
 H    2.598243965249   -2.325881524640    0.000000000000
 C   -0.787075034751   -1.812015524640    0.000000000000
 H   -1.735207034751   -2.357827524640    0.000000000000
 C    1.640816965249   -0.387037524640    0.000000000000
 H    2.572170965249    0.185501475360    0.000000000000
 C   -0.800926034751   -0.404534524640    0.000000000000
 H   -1.752925034751    0.138186475360    0.000000000000
 C    0.415350965249    0.303247475360    0.000000000000
 O    0.475897965249    1.683708475360    0.000000000000
 H   -0.427233034751    2.032135475360    0.000000000000
NA   -1.733398218453    2.536052644034    0.000000000000
