14

 C    0.451076388581   -2.519092225490    0.000000000000
 H    0.458798388581   -3.612267225490    0.000000000000
 C    1.661552388581   -1.799253225490    0.000000000000
 H    2.616571388581   -2.332952225490    0.000000000000
 C   -0.768747611419   -1.819086225490    0.000000000000
 H   -1.716879611419   -2.364898225490    0.000000000000
 C    1.659144388581   -0.394108225490    0.000000000000
 H    2.590498388581    0.178430774510    0.000000000000
 C   -0.782598611419   -0.411605225490    0.000000000000
 H   -1.734597611419    0.131115774510    0.000000000000
 C    0.433678388581    0.296176774510    0.000000000000
 O    0.494225388581    1.676637774510    0.000000000000
 H   -0.408905611419    2.025064774510    0.000000000000
NA   -1.808368308243    2.564976026661    0.000000000000
