14

 C    0.524386081907   -2.547375028889    0.000000000000
 H    0.532108081907   -3.640550028889    0.000000000000
 C    1.734862081907   -1.827536028889    0.000000000000
 H    2.689881081907   -2.361235028889    0.000000000000
 C   -0.695437918093   -1.847369028889    0.000000000000
 H   -1.643569918093   -2.393181028889    0.000000000000
 C    1.732454081907   -0.422391028889    0.000000000000
 H    2.663808081907    0.150147971111    0.000000000000
 C   -0.709288918093   -0.439888028889    0.000000000000
 H   -1.661287918093    0.102832971111    0.000000000000
 C    0.506988081907    0.267893971111    0.000000000000
 O    0.567535081907    1.648354971111    0.000000000000
 H   -0.335595918093    1.996781971111    0.000000000000
NA   -2.108248667403    2.680669557168    0.000000000000
