14

 C    2.008907371769   -3.120101797722    0.000000000000
 H    2.016629371769   -4.213276797722    0.000000000000
 C    3.219383371769   -2.400262797722    0.000000000000
 H    4.174402371769   -2.933961797722    0.000000000000
 C    0.789083371769   -2.420095797722    0.000000000000
 H   -0.159048628231   -2.965907797722    0.000000000000
 C    3.216975371769   -0.995117797722    0.000000000000
 H    4.148329371769   -0.422578797722    0.000000000000
 C    0.775232371769   -1.012614797722    0.000000000000
 H   -0.176766628231   -0.469893797722    0.000000000000
 C    1.991509371769   -0.304832797722    0.000000000000
 O    2.052056371769    1.075628202278    0.000000000000
 H    1.148925371769    1.424055202278    0.000000000000
NA   -8.180825940389    5.023463549950    0.000000000000
