14

 C    0.542713505239   -2.554445729739    0.000000000000
 H    0.550435505239   -3.647620729739    0.000000000000
 C    1.753189505239   -1.834606729739    0.000000000000
 H    2.708208505239   -2.368305729739    0.000000000000
 C   -0.677110494761   -1.854439729739    0.000000000000
 H   -1.625242494761   -2.400251729739    0.000000000000
 C    1.750781505239   -0.429461729739    0.000000000000
 H    2.682135505239    0.143077270261    0.000000000000
 C   -0.690961494761   -0.446958729739    0.000000000000
 H   -1.642960494761    0.095762270261    0.000000000000
 C    0.525315505239    0.260823270261    0.000000000000
 O    0.585862505239    1.641284270261    0.000000000000
 H   -0.317268494761    1.989711270261    0.000000000000
NA   -2.183218757193    2.709592939795    0.000000000000
