14

 C    0.579368351902   -2.568587131439    0.000000000000
 H    0.587090351902   -3.661762131439    0.000000000000
 C    1.789844351902   -1.848748131439    0.000000000000
 H    2.744863351902   -2.382447131439    0.000000000000
 C   -0.640455648098   -1.868581131439    0.000000000000
 H   -1.588587648098   -2.414393131439    0.000000000000
 C    1.787436351902   -0.443603131439    0.000000000000
 H    2.718790351902    0.128935868561    0.000000000000
 C   -0.654306648098   -0.461100131439    0.000000000000
 H   -1.606305648098    0.081620868561    0.000000000000
 C    0.561970351902    0.246681868561    0.000000000000
 O    0.622517351902    1.627142868561    0.000000000000
 H   -0.280613648098    1.975569868561    0.000000000000
NA   -2.333158936773    2.767439705049    0.000000000000
