14

 C    0.597695775234   -2.575657832288    0.000000000000
 H    0.605417775234   -3.668832832288    0.000000000000
 C    1.808171775234   -1.855818832288    0.000000000000
 H    2.763190775234   -2.389517832288    0.000000000000
 C   -0.622128224766   -1.875651832288    0.000000000000
 H   -1.570260224766   -2.421463832288    0.000000000000
 C    1.805763775234   -0.450673832288    0.000000000000
 H    2.737117775234    0.121865167712    0.000000000000
 C   -0.635979224766   -0.468170832288    0.000000000000
 H   -1.587978224766    0.074550167712    0.000000000000
 C    0.580297775234    0.239611167712    0.000000000000
 O    0.640844775234    1.620072167712    0.000000000000
 H   -0.262286224766    1.968499167712    0.000000000000
NA   -2.408129026563    2.796363087676    0.000000000000
