14

 C    0.634350621897   -2.589799233988    0.000000000000
 H    0.642072621897   -3.682974233988    0.000000000000
 C    1.844826621897   -1.869960233988    0.000000000000
 H    2.799845621897   -2.403659233988    0.000000000000
 C   -0.585473378103   -1.889793233988    0.000000000000
 H   -1.533605378103   -2.435605233988    0.000000000000
 C    1.842418621897   -0.464815233988    0.000000000000
 H    2.773772621897    0.107723766012    0.000000000000
 C   -0.599324378103   -0.482312233988    0.000000000000
 H   -1.551323378103    0.060408766012    0.000000000000
 C    0.616952621897    0.225469766012    0.000000000000
 O    0.677499621897    1.605930766012    0.000000000000
 H   -0.225631378103    1.954357766012    0.000000000000
NA   -2.558069206142    2.854209852930    0.000000000000
