14

 C    0.671005468560   -2.603940635687    0.000000000000
 H    0.678727468560   -3.697115635687    0.000000000000
 C    1.881481468560   -1.884101635687    0.000000000000
 H    2.836500468560   -2.417800635687    0.000000000000
 C   -0.548818531440   -1.903934635687    0.000000000000
 H   -1.496950531440   -2.449746635687    0.000000000000
 C    1.879073468560   -0.478956635687    0.000000000000
 H    2.810427468560    0.093582364313    0.000000000000
 C   -0.562669531440   -0.496453635687    0.000000000000
 H   -1.514668531440    0.046267364313    0.000000000000
 C    0.653607468560    0.211328364313    0.000000000000
 O    0.714154468560    1.591789364313    0.000000000000
 H   -0.188976531440    1.940216364313    0.000000000000
NA   -2.708009385722    2.912056618184    0.000000000000
