14

 C    0.707660315223   -2.618082037387    0.000000000000
 H    0.715382315223   -3.711257037387    0.000000000000
 C    1.918136315223   -1.898243037387    0.000000000000
 H    2.873155315223   -2.431942037387    0.000000000000
 C   -0.512163684777   -1.918076037387    0.000000000000
 H   -1.460295684777   -2.463888037387    0.000000000000
 C    1.915728315223   -0.493098037387    0.000000000000
 H    2.847082315223    0.079440962613    0.000000000000
 C   -0.526014684777   -0.510595037387    0.000000000000
 H   -1.478013684777    0.032125962613    0.000000000000
 C    0.690262315223    0.197186962613    0.000000000000
 O    0.750809315223    1.577647962613    0.000000000000
 H   -0.152321684777    1.926074962613    0.000000000000
NA   -2.857949565302    2.969903383438    0.000000000000
