14

 C    0.835952278545   -2.667576943335    0.000000000000
 H    0.843674278545   -3.760751943335    0.000000000000
 C    2.046428278545   -1.947737943335    0.000000000000
 H    3.001447278545   -2.481436943335    0.000000000000
 C   -0.383871721455   -1.967570943335    0.000000000000
 H   -1.332003721455   -2.513382943335    0.000000000000
 C    2.044020278545   -0.542592943335    0.000000000000
 H    2.975374278545    0.029946056665    0.000000000000
 C   -0.397722721455   -0.560089943335    0.000000000000
 H   -1.349721721455   -0.017368943335    0.000000000000
 C    0.818554278545    0.147692056665    0.000000000000
 O    0.879101278545    1.528153056665    0.000000000000
 H   -0.024029721455    1.876580056665    0.000000000000
NA   -3.382740193832    3.172367061826    0.000000000000
