14

 C    1.019226511861   -2.738283951833    0.000000000000
 H    1.026948511861   -3.831458951833    0.000000000000
 C    2.229702511861   -2.018444951833    0.000000000000
 H    3.184721511861   -2.552143951833    0.000000000000
 C   -0.200597488139   -2.038277951833    0.000000000000
 H   -1.148729488139   -2.584089951833    0.000000000000
 C    2.227294511861   -0.613299951833    0.000000000000
 H    3.158648511861   -0.040760951833    0.000000000000
 C   -0.214448488139   -0.630796951833    0.000000000000
 H   -1.166447488139   -0.088075951833    0.000000000000
 C    1.001828511861    0.076985048167    0.000000000000
 O    1.062375511861    1.457446048167    0.000000000000
 H    0.159244511861    1.805873048167    0.000000000000
NA   -4.132441091732    3.461600888096    0.000000000000
