14

 C    1.037553935193   -2.745354652683    0.000000000000
 H    1.045275935193   -3.838529652683    0.000000000000
 C    2.248029935193   -2.025515652683    0.000000000000
 H    3.203048935193   -2.559214652683    0.000000000000
 C   -0.182270064807   -2.045348652683    0.000000000000
 H   -1.130402064807   -2.591160652683    0.000000000000
 C    2.245621935193   -0.620370652683    0.000000000000
 H    3.176975935193   -0.047831652683    0.000000000000
 C   -0.196121064807   -0.637867652683    0.000000000000
 H   -1.148120064807   -0.095146652683    0.000000000000
 C    1.020155935193    0.069914347317    0.000000000000
 O    1.080702935193    1.450375347317    0.000000000000
 H    0.177571935193    1.798802347317    0.000000000000
NA   -4.207411181522    3.490524270723    0.000000000000
