14

 C    1.055881358524   -2.752425353533    0.000000000000
 H    1.063603358524   -3.845600353533    0.000000000000
 C    2.266357358524   -2.032586353533    0.000000000000
 H    3.221376358524   -2.566285353533    0.000000000000
 C   -0.163942641476   -2.052419353533    0.000000000000
 H   -1.112074641476   -2.598231353533    0.000000000000
 C    2.263949358524   -0.627441353533    0.000000000000
 H    3.195303358524   -0.054902353533    0.000000000000
 C   -0.177793641476   -0.644938353533    0.000000000000
 H   -1.129792641476   -0.102217353533    0.000000000000
 C    1.038483358524    0.062843646467    0.000000000000
 O    1.099030358524    1.443304646467    0.000000000000
 H    0.195899358524    1.791731646467    0.000000000000
NA   -4.282381271311    3.519447653350    0.000000000000
