14

 C    1.147518475182   -2.787778857782    0.000000000000
 H    1.155240475182   -3.880953857782    0.000000000000
 C    2.357994475182   -2.067939857782    0.000000000000
 H    3.313013475182   -2.601638857782    0.000000000000
 C   -0.072305524818   -2.087772857782    0.000000000000
 H   -1.020437524818   -2.633584857782    0.000000000000
 C    2.355586475182   -0.662794857782    0.000000000000
 H    3.286940475182   -0.090255857782    0.000000000000
 C   -0.086156524818   -0.680291857782    0.000000000000
 H   -1.038155524818   -0.137570857782    0.000000000000
 C    1.130120475182    0.027490142218    0.000000000000
 O    1.190667475182    1.407951142218    0.000000000000
 H    0.287536475182    1.756378142218    0.000000000000
NA   -4.657231720261    3.664064566484    0.000000000000
