14

 C    1.165845898514   -2.794849558632    0.000000000000
 H    1.173567898514   -3.888024558632    0.000000000000
 C    2.376321898514   -2.075010558632    0.000000000000
 H    3.331340898514   -2.608709558632    0.000000000000
 C   -0.053978101486   -2.094843558632    0.000000000000
 H   -1.002110101486   -2.640655558632    0.000000000000
 C    2.373913898514   -0.669865558632    0.000000000000
 H    3.305267898514   -0.097326558632    0.000000000000
 C   -0.067829101486   -0.687362558632    0.000000000000
 H   -1.019828101486   -0.144641558632    0.000000000000
 C    1.148447898514    0.020419441368    0.000000000000
 O    1.208994898514    1.400880441368    0.000000000000
 H    0.305863898514    1.749307441368    0.000000000000
NA   -4.732201810051    3.692987949111    0.000000000000
