14

 C    1.220828168509   -2.816061661181    0.000000000000
 H    1.228550168509   -3.909236661181    0.000000000000
 C    2.431304168509   -2.096222661181    0.000000000000
 H    3.386323168509   -2.629921661181    0.000000000000
 C    0.001004168509   -2.116055661181    0.000000000000
 H   -0.947127831491   -2.661867661181    0.000000000000
 C    2.428896168509   -0.691077661181    0.000000000000
 H    3.360250168509   -0.118538661181    0.000000000000
 C   -0.012846831491   -0.708574661181    0.000000000000
 H   -0.964845831491   -0.165853661181    0.000000000000
 C    1.203430168509   -0.000792661181    0.000000000000
 O    1.263977168509    1.379668338819    0.000000000000
 H    0.360846168509    1.728095338819    0.000000000000
NA   -4.957112079421    3.779758096992    0.000000000000
