14

 C    1.257483015172   -2.830203062881    0.000000000000
 H    1.265205015172   -3.923378062881    0.000000000000
 C    2.467959015172   -2.110364062881    0.000000000000
 H    3.422978015172   -2.644063062881    0.000000000000
 C    0.037659015172   -2.130197062881    0.000000000000
 H   -0.910472984828   -2.676009062881    0.000000000000
 C    2.465551015172   -0.705219062881    0.000000000000
 H    3.396905015172   -0.132680062881    0.000000000000
 C    0.023808015172   -0.722716062881    0.000000000000
 H   -0.928190984828   -0.179995062881    0.000000000000
 C    1.240085015172   -0.014934062881    0.000000000000
 O    1.300632015172    1.365526937119    0.000000000000
 H    0.397501015172    1.713953937119    0.000000000000
NA   -5.107052259001    3.837604862246    0.000000000000
