14

 C    1.312465285167   -2.851415165430    0.000000000000
 H    1.320187285167   -3.944590165430    0.000000000000
 C    2.522941285167   -2.131576165430    0.000000000000
 H    3.477960285167   -2.665275165430    0.000000000000
 C    0.092641285167   -2.151409165430    0.000000000000
 H   -0.855490714833   -2.697221165430    0.000000000000
 C    2.520533285167   -0.726431165430    0.000000000000
 H    3.451887285167   -0.153892165430    0.000000000000
 C    0.078790285167   -0.743928165430    0.000000000000
 H   -0.873208714833   -0.201207165430    0.000000000000
 C    1.295067285167   -0.036146165430    0.000000000000
 O    1.355614285167    1.344314834570    0.000000000000
 H    0.452483285167    1.692741834570    0.000000000000
NA   -5.331962528371    3.924375010127    0.000000000000
