14

 C    1.349120131830   -2.865556567129    0.000000000000
 H    1.356842131830   -3.958731567129    0.000000000000
 C    2.559596131830   -2.145717567129    0.000000000000
 H    3.514615131830   -2.679416567129    0.000000000000
 C    0.129296131830   -2.165550567129    0.000000000000
 H   -0.818835868170   -2.711362567129    0.000000000000
 C    2.557188131830   -0.740572567129    0.000000000000
 H    3.488542131830   -0.168033567129    0.000000000000
 C    0.115445131830   -0.758069567129    0.000000000000
 H   -0.836553868170   -0.215348567129    0.000000000000
 C    1.331722131830   -0.050287567129    0.000000000000
 O    1.392269131830    1.330173432871    0.000000000000
 H    0.489138131830    1.678600432871    0.000000000000
NA   -5.481902707951    3.982221775381    0.000000000000
