14

 C    1.495739518483   -2.922122173928    0.000000000000
 H    1.503461518483   -4.015297173928    0.000000000000
 C    2.706215518483   -2.202283173928    0.000000000000
 H    3.661234518483   -2.735982173928    0.000000000000
 C    0.275915518483   -2.222116173928    0.000000000000
 H   -0.672216481517   -2.767928173928    0.000000000000
 C    2.703807518483   -0.797138173928    0.000000000000
 H    3.635161518483   -0.224599173928    0.000000000000
 C    0.262064518483   -0.814635173928    0.000000000000
 H   -0.689934481517   -0.271914173928    0.000000000000
 C    1.478341518483   -0.106853173928    0.000000000000
 O    1.538888518483    1.273607826072    0.000000000000
 H    0.635757518483    1.622034826072    0.000000000000
NA   -6.081663426270    4.213608836396    0.000000000000
