14

 C    1.532394365146   -2.936263575627    0.000000000000
 H    1.540116365146   -4.029438575627    0.000000000000
 C    2.742870365146   -2.216424575627    0.000000000000
 H    3.697889365146   -2.750123575627    0.000000000000
 C    0.312570365146   -2.236257575627    0.000000000000
 H   -0.635561634854   -2.782069575627    0.000000000000
 C    2.740462365146   -0.811279575627    0.000000000000
 H    3.671816365146   -0.238740575627    0.000000000000
 C    0.298719365146   -0.828776575627    0.000000000000
 H   -0.653279634854   -0.286055575627    0.000000000000
 C    1.514996365146   -0.120994575627    0.000000000000
 O    1.575543365146    1.259466424373    0.000000000000
 H    0.672412365146    1.607893424373    0.000000000000
NA   -6.231603605850    4.271455601650    0.000000000000
