14

 C    1.550721788478   -2.943334276477    0.000000000000
 H    1.558443788478   -4.036509276477    0.000000000000
 C    2.761197788478   -2.223495276477    0.000000000000
 H    3.716216788478   -2.757194276477    0.000000000000
 C    0.330897788478   -2.243328276477    0.000000000000
 H   -0.617234211522   -2.789140276477    0.000000000000
 C    2.758789788478   -0.818350276477    0.000000000000
 H    3.690143788478   -0.245811276477    0.000000000000
 C    0.317046788478   -0.835847276477    0.000000000000
 H   -0.634952211522   -0.293126276477    0.000000000000
 C    1.533323788478   -0.128065276477    0.000000000000
 O    1.593870788478    1.252395723523    0.000000000000
 H    0.690739788478    1.600822723523    0.000000000000
NA   -6.306573695640    4.300378984277    0.000000000000
