14

 C    1.752323445126   -3.021111985825    0.000000000000
 H    1.760045445126   -4.114286985825    0.000000000000
 C    2.962799445126   -2.301272985825    0.000000000000
 H    3.917818445126   -2.834971985825    0.000000000000
 C    0.532499445126   -2.321105985825    0.000000000000
 H   -0.415632554874   -2.866917985825    0.000000000000
 C    2.960391445126   -0.896127985825    0.000000000000
 H    3.891745445126   -0.323588985825    0.000000000000
 C    0.518648445126   -0.913624985825    0.000000000000
 H   -0.433350554874   -0.370903985825    0.000000000000
 C    1.734925445126   -0.205842985825    0.000000000000
 O    1.795472445126    1.174618014175    0.000000000000
 H    0.892341445126    1.523045014175    0.000000000000
NA   -7.131244683330    4.618536193173    0.000000000000
