14

 C    1.788978291789   -3.035253387524    0.000000000000
 H    1.796700291789   -4.128428387524    0.000000000000
 C    2.999454291789   -2.315414387524    0.000000000000
 H    3.954473291789   -2.849113387524    0.000000000000
 C    0.569154291789   -2.335247387524    0.000000000000
 H   -0.378977708211   -2.881059387524    0.000000000000
 C    2.997046291789   -0.910269387524    0.000000000000
 H    3.928400291789   -0.337730387524    0.000000000000
 C    0.555303291789   -0.927766387524    0.000000000000
 H   -0.396695708211   -0.385045387524    0.000000000000
 C    1.771580291789   -0.219984387524    0.000000000000
 O    1.832127291789    1.160476612476    0.000000000000
 H    0.928996291789    1.508903612476    0.000000000000
NA   -7.281184862910    4.676382958427    0.000000000000
