14

 C    1.825633138452   -3.049394789224    0.000000000000
 H    1.833355138452   -4.142569789224    0.000000000000
 C    3.036109138452   -2.329555789224    0.000000000000
 H    3.991128138452   -2.863254789224    0.000000000000
 C    0.605809138452   -2.349388789224    0.000000000000
 H   -0.342322861548   -2.895200789224    0.000000000000
 C    3.033701138452   -0.924410789224    0.000000000000
 H    3.965055138452   -0.351871789224    0.000000000000
 C    0.591958138452   -0.941907789224    0.000000000000
 H   -0.360040861548   -0.399186789224    0.000000000000
 C    1.808235138452   -0.234125789224    0.000000000000
 O    1.868782138452    1.146335210776    0.000000000000
 H    0.965651138452    1.494762210776    0.000000000000
NA   -7.431125042490    4.734229723681    0.000000000000
