14

 C    1.917270255110   -3.084748293473    0.000000000000
 H    1.924992255110   -4.177923293473    0.000000000000
 C    3.127746255110   -2.364909293473    0.000000000000
 H    4.082765255110   -2.898608293473    0.000000000000
 C    0.697446255110   -2.384742293473    0.000000000000
 H   -0.250685744890   -2.930554293473    0.000000000000
 C    3.125338255110   -0.959764293473    0.000000000000
 H    4.056692255110   -0.387225293473    0.000000000000
 C    0.683595255110   -0.977261293473    0.000000000000
 H   -0.268403744890   -0.434540293473    0.000000000000
 C    1.899872255110   -0.269479293473    0.000000000000
 O    1.960419255110    1.110981706527    0.000000000000
 H    1.057288255110    1.459408706527    0.000000000000
NA   -7.805975491439    4.878846636815    0.000000000000
