14

 C    1.935597678442   -3.091818994323    0.000000000000
 H    1.943319678442   -4.184993994323    0.000000000000
 C    3.146073678442   -2.371979994323    0.000000000000
 H    4.101092678442   -2.905678994323    0.000000000000
 C    0.715773678442   -2.391812994323    0.000000000000
 H   -0.232358321558   -2.937624994323    0.000000000000
 C    3.143665678442   -0.966834994323    0.000000000000
 H    4.075019678442   -0.394295994323    0.000000000000
 C    0.701922678442   -0.984331994323    0.000000000000
 H   -0.250076321558   -0.441610994323    0.000000000000
 C    1.918199678442   -0.276549994323    0.000000000000
 O    1.978746678442    1.103911005677    0.000000000000
 H    1.075615678442    1.452338005677    0.000000000000
NA   -7.880945581229    4.907770019442    0.000000000000
