14

 C    1.990579948437   -3.113031096872    0.000000000000
 H    1.998301948437   -4.206206096872    0.000000000000
 C    3.201055948437   -2.393192096872    0.000000000000
 H    4.156074948437   -2.926891096872    0.000000000000
 C    0.770755948437   -2.413025096872    0.000000000000
 H   -0.177376051563   -2.958837096872    0.000000000000
 C    3.198647948437   -0.988047096872    0.000000000000
 H    4.130001948437   -0.415508096872    0.000000000000
 C    0.756904948437   -1.005544096872    0.000000000000
 H   -0.195094051563   -0.462823096872    0.000000000000
 C    1.973181948437   -0.297762096872    0.000000000000
 O    2.033728948437    1.082698903128    0.000000000000
 H    1.130597948437    1.431125903128    0.000000000000
NA   -8.105855850599    4.994540167323    0.000000000000
