28

 N    0.679418356488    3.557264229213    0.086409045259
 C    0.167468356488    4.828644229213    0.063479045259
 H    0.883648356488    5.648484229213    0.119669045259
 C   -0.118451643512    2.437324229213    0.020679045259
 O    0.412788356488    1.285374229213    0.045509045259
 N   -1.468131643512    2.582864229213   -0.070430954741
 C   -1.997381643512    3.827764229213   -0.092590954741
 N   -3.331811643512    3.941174229213   -0.179230954741
 H   -3.917991643512    3.117984229213   -0.223420954741
 H   -3.779561643512    4.848984229213   -0.197830954741
 C   -1.184291643512    5.008054229213   -0.027260954741
 H   -1.615861643512    6.007904229213   -0.046910954741
 H    1.682228356488    3.408934229213    0.154989045259
NA    1.549568356488   -0.623725770787    0.111959045259
NA   -1.701191643512    0.151594229213   -0.128660954741
 O   -0.381400957471   -1.187633117961   -0.042037079281
 C    0.149842256737   -2.339573563268   -0.017206730424
 N   -0.648029291985   -3.459517567020   -0.082927167123
 H   -1.650831708510   -3.311183639810   -0.151493342096
 C   -0.136073277115   -4.730900173696   -0.060011786244
 H   -0.852247767069   -5.550732365757   -0.116194331574
 C    1.215689208291   -4.910300405136    0.030714708835
 H    1.647255345071   -5.910150166133    0.050361110996
 C    2.028772883228   -3.730012801244    0.096031494970
 N    3.363203321876   -3.843428772056    0.182654722659
 N    1.499519141947   -2.485117068455    0.073882907567
 H    3.949386565687   -3.020233932103    0.226843315640
 H    3.810954223132   -4.751232136557    0.201247568746
