28

 N    1.818699865197    7.104846011059    0.211995828024
 C    1.306749865197    8.376226011059    0.189065828024
 H    2.022929865197    9.196066011059    0.245255828024
 C    1.020829865197    5.984906011059    0.146265828024
 O    1.552069865197    4.832956011059    0.171095828024
 N   -0.328850134803    6.130446011059    0.055155828024
 C   -0.858100134803    7.375346011059    0.032995828024
 N   -2.192530134803    7.488756011059   -0.053644171976
 H   -2.778710134803    6.665566011059   -0.097834171976
 H   -2.640280134803    8.396566011059   -0.072244171976
 C   -0.045010134803    8.555636011059    0.098325828024
 H   -0.476580134803    9.555486011059    0.078675828024
 H    2.821509865197    6.956516011059    0.280575828024
NA    2.688849865197    2.923856011059    0.237545828024
NA   -0.561910134803    3.699176011059   -0.003074171976
 O   -1.992423274389   -6.204157460681   -0.219625417367
 C   -1.461180060182   -7.356097905988   -0.194795068511
 N   -2.259051608904   -8.476041909740   -0.260515505210
 H   -3.261854025428   -8.327707982529   -0.329081680183
 C   -1.747095594034   -9.747424516416   -0.237600124330
 H   -2.463270083987  -10.567256708477   -0.293782669660
 C   -0.395333108628   -9.926824747855   -0.146873629252
 H    0.036233028152  -10.926674508853   -0.127227227091
 C    0.417750566309   -8.746537143964   -0.081556843117
 N    1.752181004957   -8.859953114776    0.005066384572
 N   -0.111503174972   -7.501641411175   -0.103705430520
 H    2.338364248768   -8.036758274823    0.049254977553
 H    2.199931906213   -9.767756479276    0.023659230659
