28

 N    0.806005190789    3.951439982751    0.100363132233
 C    0.294055190789    5.222819982751    0.077433132233
 H    1.010235190789    6.042659982751    0.133623132233
 C    0.008135190789    2.831499982751    0.034633132233
 O    0.539375190789    1.679549982751    0.059463132233
 N   -1.341544809211    2.977039982751   -0.056476867767
 C   -1.870794809211    4.221939982751   -0.078636867767
 N   -3.205224809211    4.335349982751   -0.165276867767
 H   -3.791404809211    3.512159982751   -0.209466867767
 H   -3.652974809211    5.243159982751   -0.183876867767
 C   -1.057704809211    5.402229982751   -0.013306867767
 H   -1.489274809211    6.402079982751   -0.032956867767
 H    1.808815190789    3.803109982751    0.168943132233
NA    1.676155190789   -0.229550017249    0.125913132233
NA   -1.574604809211    0.545769982751   -0.114706867767
 O   -0.560403437128   -1.745024711597   -0.061769116846
 C   -0.029160222920   -2.896965156904   -0.036938767989
 N   -0.827031771643   -4.016909160656   -0.102659204688
 H   -1.829834188167   -3.868575233445   -0.171225379662
 C   -0.315075756773   -5.288291767332   -0.079743823809
 H   -1.031250246726   -6.108123959393   -0.135926369139
 C    1.036686728633   -5.467691998771    0.010982671270
 H    1.468252865413   -6.467541759769    0.030629073430
 C    1.849770403570   -4.287404394880    0.076299457405
 N    3.184200842218   -4.400820365692    0.162922685094
 N    1.320516662289   -3.042508662091    0.054150870002
 H    3.770384086029   -3.577625525739    0.207111278075
 H    3.631951743475   -5.308623730192    0.181515531181
