28

 N    0.818663874219    3.990857558105    0.101758540930
 C    0.306713874219    5.262237558105    0.078828540930
 H    1.022893874219    6.082077558105    0.135018540930
 C    0.020793874219    2.870917558105    0.036028540930
 O    0.552033874219    1.718967558105    0.060858540930
 N   -1.328886125781    3.016457558105   -0.055081459070
 C   -1.858136125781    4.261357558105   -0.077241459070
 N   -3.192566125781    4.374767558105   -0.163881459070
 H   -3.778746125781    3.551577558105   -0.208071459070
 H   -3.640316125781    5.282577558105   -0.182481459070
 C   -1.045046125781    5.441647558105   -0.011911459070
 H   -1.476616125781    6.441497558105   -0.031561459070
 H    1.821473874219    3.842527558105    0.170338540930
NA    1.688813874219   -0.190132441895    0.127308540930
NA   -1.561946125781    0.585187558105   -0.113311459070
 O   -0.578303685094   -1.800763870961   -0.063742320602
 C   -0.047060470886   -2.952704316267   -0.038911971746
 N   -0.844932019608   -4.072648320019   -0.104632408445
 H   -1.847734436133   -3.924314392809   -0.173198583418
 C   -0.332976004738   -5.344030926695   -0.081717027565
 H   -1.049150494692   -6.163863118756   -0.137899572895
 C    1.018786480667   -5.523431158135    0.009009467514
 H    1.450352617447   -6.523280919132    0.028655869674
 C    1.831870155605   -4.343143554243    0.074326253649
 N    3.166300594252   -4.456559525055    0.160949481337
 N    1.302616414323   -3.098247821455    0.052177666245
 H    3.752483838064   -3.633364685102    0.205138074318
 H    3.614051495509   -5.364362889556    0.179542327425
