28

 N    0.894615974800    4.227363010228    0.110130993114
 C    0.382665974800    5.498743010228    0.087200993114
 H    1.098845974800    6.318583010228    0.143390993114
 C    0.096745974800    3.107423010228    0.044400993114
 O    0.627985974800    1.955473010228    0.069230993114
 N   -1.252934025200    3.252963010228   -0.046709006886
 C   -1.782184025200    4.497863010228   -0.068869006886
 N   -3.116614025200    4.611273010228   -0.155509006886
 H   -3.702794025200    3.788083010228   -0.199699006886
 H   -3.564364025200    5.519083010228   -0.174109006886
 C   -0.969094025200    5.678153010228   -0.003539006886
 H   -1.400664025200    6.678003010228   -0.023189006886
 H    1.897425974800    4.079033010228    0.178710993114
NA    1.764765974800    0.046373010228    0.135680993114
NA   -1.485994025200    0.821693010228   -0.104939006886
 O   -0.685705172889   -2.135198827142   -0.075581543141
 C   -0.154461958681   -3.287139272449   -0.050751194285
 N   -0.952333507403   -4.407083276201   -0.116471630984
 H   -1.955135923928   -4.258749348990   -0.185037805957
 C   -0.440377492533   -5.678465882877   -0.093556250104
 H   -1.156551982487   -6.498298074938   -0.149738795434
 C    0.911384992873   -5.857866114316   -0.002829755026
 H    1.342951129653   -6.857715875314    0.016816647135
 C    1.724468667810   -4.677578510425    0.062487031109
 N    3.058899106458   -4.790994481237    0.149110258798
 N    1.195214926529   -3.432682777636    0.040338443706
 H    3.645082350269   -3.967799641284    0.193298851779
 H    3.506650007714   -5.698797845737    0.167703104885
