28

 N    0.907274658230    4.266780585582    0.111526401812
 C    0.395324658230    5.538160585582    0.088596401812
 H    1.111504658230    6.358000585582    0.144786401812
 C    0.109404658230    3.146840585582    0.045796401812
 O    0.640644658230    1.994890585582    0.070626401812
 N   -1.240275341770    3.292380585582   -0.045313598188
 C   -1.769525341770    4.537280585582   -0.067473598188
 N   -3.103955341770    4.650690585582   -0.154113598188
 H   -3.690135341770    3.827500585582   -0.198303598188
 H   -3.551705341770    5.558500585582   -0.172713598188
 C   -0.956435341770    5.717570585582   -0.002143598188
 H   -1.388005341770    6.717420585582   -0.021793598188
 H    1.910084658230    4.118450585582    0.180106401812
NA    1.777424658230    0.085790585582    0.137076401812
NA   -1.473335341770    0.861110585582   -0.103543598188
 O   -0.703605420854   -2.190937986505   -0.077554746898
 C   -0.172362206647   -3.342878431812   -0.052724398042
 N   -0.970233755369   -4.462822435564   -0.118444834740
 H   -1.973036171893   -4.314488508354   -0.187011009714
 C   -0.458277740499   -5.734205042240   -0.095529453861
 H   -1.174452230453   -6.554037234301   -0.151711999191
 C    0.893484744907   -5.913605273680   -0.004802958782
 H    1.325050881687   -6.913455034677    0.014843443378
 C    1.706568419844   -4.733317669788    0.060513827353
 N    3.040998858492   -4.846733640600    0.147137055042
 N    1.177314678563   -3.488421936999    0.038365239950
 H    3.627182102303   -4.023538800647    0.191325648023
 H    3.488749759748   -5.754537005101    0.165729901129
