28

 N    0.945250708520    4.385033311643    0.115712627904
 C    0.433300708520    5.656413311643    0.092782627904
 H    1.149480708520    6.476253311643    0.148972627904
 C    0.147380708520    3.265093311643    0.049982627904
 O    0.678620708520    2.113143311643    0.074812627904
 N   -1.202299291480    3.410633311643   -0.041127372096
 C   -1.731549291480    4.655533311643   -0.063287372096
 N   -3.065979291480    4.768943311643   -0.149927372096
 H   -3.652159291480    3.945753311643   -0.194117372096
 H   -3.513729291480    5.676753311643   -0.168527372096
 C   -0.918459291480    5.835823311643    0.002042627904
 H   -1.350029291480    6.835673311643   -0.017607372096
 H    1.948060708520    4.236703311643    0.184292627904
NA    1.815400708520    0.204043311643    0.141262627904
NA   -1.435359291480    0.979363311643   -0.099357372096
 O   -0.757306164752   -2.358155464596   -0.083474358167
 C   -0.226062950544   -3.510095909903   -0.058644009311
 N   -1.023934499266   -4.630039913655   -0.124364446010
 H   -2.026736915791   -4.481705986444   -0.192930620983
 C   -0.511978484396   -5.901422520331   -0.101449065131
 H   -1.228152974350   -6.721254712392   -0.157631610461
 C    0.839784001010   -6.080822751770   -0.010722570052
 H    1.271350137790   -7.080672512768    0.008923832109
 C    1.652867675947   -4.900535147879    0.054594216083
 N    2.987298114595   -5.013951118691    0.141217443772
 N    1.123613934666   -3.655639415090    0.032445628680
 H    3.573481358406   -4.190756278738    0.185406036753
 H    3.435049015851   -5.921754483191    0.159810289859
