28

 N    0.983226758810    4.503286037705    0.119898853996
 C    0.471276758810    5.774666037705    0.096968853996
 H    1.187456758810    6.594506037705    0.153158853996
 C    0.185356758810    3.383346037705    0.054168853996
 O    0.716596758810    2.231396037705    0.078998853996
 N   -1.164323241190    3.528886037705   -0.036941146004
 C   -1.693573241190    4.773786037705   -0.059101146004
 N   -3.028003241190    4.887196037705   -0.145741146004
 H   -3.614183241190    4.064006037705   -0.189931146004
 H   -3.475753241190    5.795006037705   -0.164341146004
 C   -0.880483241190    5.954076037705    0.006228853996
 H   -1.312053241190    6.953926037705   -0.013421146004
 H    1.986036758810    4.354956037705    0.188478853996
NA    1.853376758810    0.322296037705    0.145448853996
NA   -1.397383241190    1.097616037705   -0.095171146004
 O   -0.811006908649   -2.525372942687   -0.089393969437
 C   -0.279763694441   -3.677313387994   -0.064563620581
 N   -1.077635243163   -4.797257391746   -0.130284057279
 H   -2.080437659688   -4.648923464535   -0.198850232253
 C   -0.565679228293   -6.068639998421   -0.107368676400
 H   -1.281853718247   -6.888472190482   -0.163551221730
 C    0.786083257112   -6.248040229861   -0.016642181321
 H    1.217649393892   -7.247889990859    0.003004220839
 C    1.599166932050   -5.067752625970    0.048674604814
 N    2.933597370697   -5.181168596782    0.135297832502
 N    1.069913190768   -3.822856893181    0.026526017411
 H    3.519780614509   -4.357973756829    0.179486425484
 H    3.381348271954   -6.088971961282    0.153890678590
