28

 N    1.008544125671    4.582121188413    0.122689671391
 C    0.496594125671    5.853501188413    0.099759671391
 H    1.212774125671    6.673341188413    0.155949671391
 C    0.210674125671    3.462181188413    0.056959671391
 O    0.741914125671    2.310231188413    0.081789671391
 N   -1.139005874329    3.607721188413   -0.034150328609
 C   -1.668255874329    4.852621188413   -0.056310328609
 N   -3.002685874329    4.966031188413   -0.142950328609
 H   -3.588865874329    4.142841188413   -0.187140328609
 H   -3.450435874329    5.873841188413   -0.161550328609
 C   -0.855165874329    6.032911188413    0.009019671391
 H   -1.286735874329    7.032761188413   -0.010630328609
 H    2.011354125671    4.433791188413    0.191269671391
NA    1.878694125671    0.401131188413    0.148239671391
NA   -1.372065874329    1.176451188413   -0.092380328609
 O   -0.846807404580   -2.636851261414   -0.093340376950
 C   -0.315564190373   -3.788791706721   -0.068510028094
 N   -1.113435739095   -4.908735710473   -0.134230464793
 H   -2.116238155619   -4.760401783262   -0.202796639766
 C   -0.601479724225   -6.180118317148   -0.111315083913
 H   -1.317654214179   -6.999950509210   -0.167497629243
 C    0.750282761181   -6.359518548588   -0.020588588834
 H    1.181848897961   -7.359368309586   -0.000942186674
 C    1.563366436118   -5.179230944697    0.044728197301
 N    2.897796874766   -5.292646915509    0.131351424989
 N    1.034112694837   -3.934335211908    0.022579609897
 H    3.483980118577   -4.469452075556    0.175540017971
 H    3.345547776022   -6.200450280009    0.149944271077
