28

 N    1.021202809101    4.621538763767    0.124085080088
 C    0.509252809101    5.892918763767    0.101155080088
 H    1.225432809101    6.712758763767    0.157345080088
 C    0.223332809101    3.501598763767    0.058355080088
 O    0.754572809101    2.349648763767    0.083185080088
 N   -1.126347190899    3.647138763767   -0.032754919912
 C   -1.655597190899    4.892038763767   -0.054914919912
 N   -2.990027190899    5.005448763767   -0.141554919912
 H   -3.576207190899    4.182258763767   -0.185744919912
 H   -3.437777190899    5.913258763767   -0.160154919912
 C   -0.842507190899    6.072328763767    0.010415080088
 H   -1.274077190899    7.072178763767   -0.009234919912
 H    2.024012809101    4.473208763767    0.192665080088
NA    1.891352809101    0.440548763767    0.149635080088
NA   -1.359407190899    1.215868763767   -0.090984919912
 O   -0.864707652546   -2.692590420777   -0.095313580707
 C   -0.333464438338   -3.844530866084   -0.070483231850
 N   -1.131335987060   -4.964474869836   -0.136203668549
 H   -2.134138403585   -4.816140942626   -0.204769843523
 C   -0.619379972191   -6.235857476512   -0.113288287670
 H   -1.335554462144   -7.055689668573   -0.169470833000
 C    0.732382513215   -6.415257707952   -0.022561792591
 H    1.163948649995   -7.415107468949   -0.002915390430
 C    1.545466188152   -5.234970104060    0.042754993544
 N    2.879896626800   -5.348386074872    0.129378221233
 N    1.016212446871   -3.990074371271    0.020606406141
 H    3.466079870611   -4.525191234919    0.173566814214
 H    3.327647528057   -6.256189439373    0.147971067320
