28

 N    1.071837542821    4.779209065182    0.129666714878
 C    0.559887542821    6.050589065182    0.106736714878
 H    1.276067542821    6.870429065182    0.162926714878
 C    0.273967542821    3.659269065182    0.063936714878
 O    0.805207542821    2.507319065182    0.088766714878
 N   -1.075712457179    3.804809065182   -0.027173285122
 C   -1.604962457179    5.049709065182   -0.049333285122
 N   -2.939392457179    5.163119065182   -0.135973285122
 H   -3.525572457179    4.339929065182   -0.180163285122
 H   -3.387142457179    6.070929065182   -0.154573285122
 C   -0.791872457179    6.229999065182    0.015996714878
 H   -1.223442457179    7.229849065182   -0.003653285122
 H    2.074647542821    4.630879065182    0.198246714878
NA    1.941987542821    0.598219065182    0.155216714878
NA   -1.308772457179    1.373539065182   -0.085403285122
 O   -0.936308644409   -2.915547058232   -0.103206395733
 C   -0.405065430202   -4.067487503538   -0.078376046876
 N   -1.202936978924   -5.187431507290   -0.144096483575
 H   -2.205739395448   -5.039097580080   -0.212662658549
 C   -0.690980964054   -6.458814113966   -0.121181102696
 H   -1.407155454007   -7.278646306027   -0.177363648026
 C    0.660781521352   -6.638214345406   -0.030454607617
 H    1.092347658132   -7.638064106403   -0.010808205457
 C    1.473865196289   -5.457926741514    0.034862178518
 N    2.808295634937   -5.571342712326    0.121485406207
 N    0.944611455008   -4.213031008726    0.012713591115
 H    3.394478878748   -4.748147872373    0.165673999188
 H    3.256046536194   -6.479146076827    0.140078252294
