28

 N    1.122472276542    4.936879366597    0.135248349667
 C    0.610522276542    6.208259366597    0.112318349667
 H    1.326702276542    7.028099366597    0.168508349667
 C    0.324602276542    3.816939366597    0.069518349667
 O    0.855842276542    2.664989366597    0.094348349667
 N   -1.025077723458    3.962479366597   -0.021591650333
 C   -1.554327723458    5.207379366597   -0.043751650333
 N   -2.888757723458    5.320789366597   -0.130391650333
 H   -3.474937723458    4.497599366597   -0.174581650333
 H   -3.336507723458    6.228599366597   -0.148991650333
 C   -0.741237723458    6.387669366597    0.021578349667
 H   -1.172807723458    7.387519366597    0.001928349667
 H    2.125282276542    4.788549366597    0.203828349667
NA    1.992622276542    0.755889366597    0.160798349667
NA   -1.258137723458    1.531209366597   -0.079821650333
 O   -1.007909636272   -3.138503695686   -0.111099210759
 C   -0.476666422065   -4.290444140993   -0.086268861903
 N   -1.274537970787   -5.410388144745   -0.151989298601
 H   -2.277340387311   -5.262054217534   -0.220555473575
 C   -0.762581955917   -6.681770751420   -0.129073917722
 H   -1.478756445870   -7.501602943481   -0.185256463052
 C    0.589180529489   -6.861170982860   -0.038347422643
 H    1.020746666269   -7.861020743858   -0.018701020483
 C    1.402264204426   -5.680883378969    0.026969363492
 N    2.736694643074   -5.794299349781    0.113592591181
 N    0.873010463145   -4.435987646180    0.004820776089
 H    3.322877886885   -4.971104509828    0.157781184162
 H    3.184445544330   -6.702102714281    0.132185437268
