28

 N    1.185765693692    5.133967243367    0.142225393154
 C    0.673815693692    6.405347243367    0.119295393154
 H    1.389995693692    7.225187243367    0.175485393154
 C    0.387895693692    4.014027243367    0.076495393154
 O    0.919135693692    2.862077243367    0.101325393154
 N   -0.961784306308    4.159567243367   -0.014614606846
 C   -1.491034306308    5.404467243367   -0.036774606846
 N   -2.825464306308    5.517877243367   -0.123414606846
 H   -3.411644306308    4.694687243367   -0.167604606846
 H   -3.273214306308    6.425687243367   -0.142014606846
 C   -0.677944306308    6.584757243367    0.028555393154
 H   -1.109514306308    7.584607243367    0.008905393154
 H    2.188575693692    4.985637243367    0.210805393154
NA    2.055915693692    0.952977243367    0.167775393154
NA   -1.194844306308    1.728297243367   -0.072844606846
 O   -1.097410876101   -3.417199492504   -0.120965229541
 C   -0.566167661893   -4.569139937810   -0.096134880685
 N   -1.364039210615   -5.689083941562   -0.161855317384
 H   -2.366841627140   -5.540750014352   -0.230421492357
 C   -0.852083195745   -6.960466548238   -0.138939936504
 H   -1.568257685699   -7.780298740299   -0.195122481834
 C    0.499679289660   -7.139866779678   -0.048213441426
 H    0.931245426440   -8.139716540675   -0.028567039265
 C    1.312762964597   -5.959579175786    0.017103344710
 N    2.647193403245   -6.072995146598    0.103726572398
 N    0.783509223316   -4.714683442997   -0.005045242694
 H    3.233376647056   -5.249800306645    0.147915165379
 H    3.094944304502   -6.980798511099    0.122319418485
