28

 N    1.249059110843    5.331055120136    0.149202436641
 C    0.737109110843    6.602435120136    0.126272436641
 H    1.453289110843    7.422275120136    0.182462436641
 C    0.451189110843    4.211115120136    0.083472436641
 O    0.982429110843    3.059165120136    0.108302436641
 N   -0.898490889157    4.356655120136   -0.007637563359
 C   -1.427740889157    5.601555120136   -0.029797563359
 N   -2.762170889157    5.714965120136   -0.116437563359
 H   -3.348350889157    4.891775120136   -0.160627563359
 H   -3.209920889157    6.622775120136   -0.135037563359
 C   -0.614650889157    6.781845120136    0.035532436641
 H   -1.046220889157    7.781695120136    0.015882436641
 H    2.251869110843    5.182725120136    0.217782436641
NA    2.119209110843    1.150065120136    0.174752436641
NA   -1.131550889157    1.925385120136   -0.065867563359
 O   -1.186912115930   -3.695895289321   -0.130831248324
 C   -0.655668901722   -4.847835734628   -0.106000899468
 N   -1.453540450444   -5.967779738380   -0.171721336166
 H   -2.456342866969   -5.819445811169   -0.240287511140
 C   -0.941584435574   -7.239162345056   -0.148805955287
 H   -1.657758925528   -8.058994537117   -0.204988500617
 C    0.410178049831   -7.418562576495   -0.058079460208
 H    0.841744186611   -8.418412337493   -0.038433058048
 C    1.223261724769   -6.238274972604    0.007237325927
 N    2.557692163416   -6.351690943416    0.093860553615
 N    0.694007983487   -4.993379239815   -0.014911261476
 H    3.143875407228   -5.528496103463    0.138049146597
 H    3.005443064673   -7.259494307917    0.112453399703
