28

 N    1.261717794273    5.370472695490    0.150597845339
 C    0.749767794273    6.641852695490    0.127667845339
 H    1.465947794273    7.461692695490    0.183857845339
 C    0.463847794273    4.250532695490    0.084867845339
 O    0.995087794273    3.098582695490    0.109697845339
 N   -0.885832205727    4.396072695490   -0.006242154661
 C   -1.415082205727    5.640972695490   -0.028402154661
 N   -2.749512205727    5.754382695490   -0.115042154661
 H   -3.335692205727    4.931192695490   -0.159232154661
 H   -3.197262205727    6.662192695490   -0.133642154661
 C   -0.601992205727    6.821262695490    0.036927845339
 H   -1.033562205727    7.821112695490    0.017277845339
 H    2.264527794273    5.222142695490    0.219177845339
NA    2.131867794273    1.189482695490    0.176147845339
NA   -1.118892205727    1.964802695490   -0.064472154661
 O   -1.204812363896   -3.751634448685   -0.132804452080
 C   -0.673569149688   -4.903574893992   -0.107974103224
 N   -1.471440698410   -6.023518897744   -0.173694539923
 H   -2.474243114935   -5.875184970533   -0.242260714896
 C   -0.959484683540   -7.294901504420   -0.150779159044
 H   -1.675659173494   -8.114733696481   -0.206961704374
 C    0.392277801866   -7.474301735859   -0.060052663965
 H    0.823843938646   -8.474151496857   -0.040406261804
 C    1.205361476803   -6.294014131968    0.005264122170
 N    2.539791915451   -6.407430102780    0.091887349859
 N    0.676107735522   -5.049118399179   -0.016884465233
 H    3.125975159262   -5.584235262827    0.136075942840
 H    2.987542816707   -7.315233467280    0.110480195946
