28

 N    1.312352527993    5.528142996905    0.156179480128
 C    0.800402527993    6.799522996905    0.133249480128
 H    1.516582527993    7.619362996905    0.189439480128
 C    0.514482527993    4.408202996905    0.090449480128
 O    1.045722527993    3.256252996905    0.115279480128
 N   -0.835197472007    4.553742996905   -0.000660519872
 C   -1.364447472007    5.798642996905   -0.022820519872
 N   -2.698877472007    5.912052996905   -0.109460519872
 H   -3.285057472007    5.088862996905   -0.153650519872
 H   -3.146627472007    6.819862996905   -0.128060519872
 C   -0.551357472007    6.978932996905    0.042509480128
 H   -0.982927472007    7.978782996905    0.022859480128
 H    2.315162527993    5.379812996905    0.224759480128
NA    2.182502527993    1.347152996905    0.181729480128
NA   -1.068257472007    2.122472996905   -0.058890519872
 O   -1.276413355759   -3.974591086139   -0.140697267107
 C   -0.745170141551   -5.126531531446   -0.115866918250
 N   -1.543041690273   -6.246475535198   -0.181587354949
 H   -2.545844106798   -6.098141607987   -0.250153529922
 C   -1.031085675403   -7.517858141874   -0.158671974070
 H   -1.747260165357   -8.337690333935   -0.214854519400
 C    0.320676810003   -7.697258373313   -0.067945478991
 H    0.752242946783   -8.697108134311   -0.048299076830
 C    1.133760484940   -6.516970769422   -0.002628692856
 N    2.468190923588   -6.630386740234    0.083994534833
 N    0.604506743659   -5.272075036633   -0.024777280259
 H    3.054374167399   -5.807191900281    0.128183127814
 H    2.915941824844   -7.538190104734    0.102587380920
