28

 N    1.325011211423    5.567560572259    0.157574888826
 C    0.813061211423    6.838940572259    0.134644888826
 H    1.529241211423    7.658780572259    0.190834888826
 C    0.527141211423    4.447620572259    0.091844888826
 O    1.058381211423    3.295670572259    0.116674888826
 N   -0.822538788577    4.593160572259    0.000734888826
 C   -1.351788788577    5.838060572259   -0.021425111174
 N   -2.686218788577    5.951470572259   -0.108065111174
 H   -3.272398788577    5.128280572259   -0.152255111174
 H   -3.133968788577    6.859280572259   -0.126665111174
 C   -0.538698788577    7.018350572259    0.043904888826
 H   -0.970268788577    8.018200572259    0.024254888826
 H    2.327821211423    5.419230572259    0.226154888826
NA    2.195161211423    1.386570572259    0.183124888826
NA   -1.055598788577    2.161890572259   -0.057495111174
 O   -1.294313603725   -4.030330245503   -0.142670470863
 C   -0.763070389517   -5.182270690810   -0.117840122007
 N   -1.560941938239   -6.302214694561   -0.183560558706
 H   -2.563744354764   -6.153880767351   -0.252126733679
 C   -1.048985923369   -7.573597301237   -0.160645177826
 H   -1.765160413323   -8.393429493298   -0.216827723156
 C    0.302776562037   -7.752997532677   -0.069918682747
 H    0.734342698817   -8.752847293674   -0.050272280587
 C    1.115860236974   -6.572709928785   -0.004601896612
 N    2.450290675622   -6.686125899597    0.082021331076
 N    0.586606495693   -5.327814195997   -0.026750484016
 H    3.036473919433   -5.862931059644    0.126209924057
 H    2.898041576878   -7.593929264098    0.100614177164
