28

 N    1.350328578283    5.646395722967    0.160365706220
 C    0.838378578283    6.917775722967    0.137435706220
 H    1.554558578283    7.737615722967    0.193625706220
 C    0.552458578283    4.526455722967    0.094635706220
 O    1.083698578283    3.374505722967    0.119465706220
 N   -0.797221421717    4.671995722967    0.003525706220
 C   -1.326471421717    5.916895722967   -0.018634293780
 N   -2.660901421717    6.030305722967   -0.105274293780
 H   -3.247081421717    5.207115722967   -0.149464293780
 H   -3.108651421717    6.938115722967   -0.123874293780
 C   -0.513381421717    7.097185722967    0.046695706220
 H   -0.944951421717    8.097035722967    0.027045706220
 H    2.353138578283    5.498065722967    0.228945706220
NA    2.220478578283    1.465405722967    0.185915706220
NA   -1.030281421717    2.240725722967   -0.054704293780
 O   -1.330114099656   -4.141808564230   -0.146616878376
 C   -0.798870885448   -5.293749009537   -0.121786529520
 N   -1.596742434170   -6.413693013289   -0.187506966219
 H   -2.599544850695   -6.265359086078   -0.256073141192
 C   -1.084786419300   -7.685075619964   -0.164591585339
 H   -1.800960909254   -8.504907812025   -0.220774130669
 C    0.266976066105   -7.864475851404   -0.073865090260
 H    0.698542202885   -8.864325612401   -0.054218688100
 C    1.080059741042   -6.684188247513   -0.008548304125
 N    2.414490179690   -6.797604218325    0.078074923563
 N    0.550805999761   -5.439292514724   -0.030696891529
 H    3.000673423501   -5.974409378372    0.122263516544
 H    2.862241080947   -7.705407582825    0.096667769651
