28

 N    1.375645945144    5.725230873674    0.163156523615
 C    0.863695945144    6.996610873674    0.140226523615
 H    1.579875945144    7.816450873674    0.196416523615
 C    0.577775945144    4.605290873674    0.097426523615
 O    1.109015945144    3.453340873674    0.122256523615
 N   -0.771904054856    4.750830873674    0.006316523615
 C   -1.301154054856    5.995730873674   -0.015843476385
 N   -2.635584054856    6.109140873674   -0.102483476385
 H   -3.221764054856    5.285950873674   -0.146673476385
 H   -3.083334054856    7.016950873674   -0.121083476385
 C   -0.488064054856    7.176020873674    0.049486523615
 H   -0.919634054856    8.175870873674    0.029836523615
 H    2.378455945144    5.576900873674    0.231736523615
NA    2.245795945144    1.544240873674    0.188706523615
NA   -1.004964054856    2.319560873674   -0.051913476385
 O   -1.365914595588   -4.253286882957   -0.150563285889
 C   -0.834671381380   -5.405227328264   -0.125732937033
 N   -1.632542930102   -6.525171332016   -0.191453373732
 H   -2.635345346627   -6.376837404805   -0.260019548705
 C   -1.120586915232   -7.796553938691   -0.168537992852
 H   -1.836761405186   -8.616386130752   -0.224720538182
 C    0.231175570174   -7.975954170131   -0.077811497773
 H    0.662741706954   -8.975803931129   -0.058165095613
 C    1.044259245111   -6.795666566240   -0.012494711638
 N    2.378689683759   -6.909082537052    0.074128516050
 N    0.515005503830   -5.550770833451   -0.034643299042
 H    2.964872927570   -6.085887697099    0.118317109031
 H    2.826440585015   -7.816885901552    0.092721362138
