28

 N    1.388304628574    5.764648449028    0.164551932312
 C    0.876354628574    7.036028449028    0.141621932312
 H    1.592534628574    7.855868449028    0.197811932312
 C    0.590434628574    4.644708449028    0.098821932312
 O    1.121674628574    3.492758449028    0.123651932312
 N   -0.759245371426    4.790248449028    0.007711932312
 C   -1.288495371426    6.035148449028   -0.014448067688
 N   -2.622925371426    6.148558449028   -0.101088067688
 H   -3.209105371426    5.325368449028   -0.145278067688
 H   -3.070675371426    7.056368449028   -0.119688067688
 C   -0.475405371426    7.215438449028    0.050881932312
 H   -0.906975371426    8.215288449028    0.031231932312
 H    2.391114628574    5.616318449028    0.233131932312
NA    2.258454628574    1.583658449028    0.190101932312
NA   -0.992305371426    2.358978449028   -0.050518067688
 O   -1.383814843553   -4.309026042320   -0.152536489646
 C   -0.852571629346   -5.460966487627   -0.127706140789
 N   -1.650443178068   -6.580910491379   -0.193426577488
 H   -2.653245594592   -6.432576564169   -0.261992752462
 C   -1.138487163198   -7.852293098055   -0.170511196609
 H   -1.854661653152   -8.672125290116   -0.226693741939
 C    0.213275322208   -8.031693329495   -0.079784701530
 H    0.644841458988   -9.031543090492   -0.060138299370
 C    1.026358997145   -6.851405725603   -0.014467915395
 N    2.360789435793   -6.964821696415    0.072155312294
 N    0.497105255864   -5.606509992814   -0.036616502798
 H    2.946972679604   -6.141626856462    0.116343905275
 H    2.808540337049   -7.872625060916    0.090748158381
