28

 N    1.426280678864    5.882901175090    0.168738158405
 C    0.914330678864    7.154281175090    0.145808158405
 H    1.630510678864    7.974121175090    0.201998158405
 C    0.628410678864    4.762961175090    0.103008158405
 O    1.159650678864    3.611011175090    0.127838158405
 N   -0.721269321136    4.908501175090    0.011898158405
 C   -1.250519321136    6.153401175090   -0.010261841595
 N   -2.584949321136    6.266811175090   -0.096901841595
 H   -3.171129321136    5.443621175090   -0.141091841595
 H   -3.032699321136    7.174621175090   -0.115501841595
 C   -0.437429321136    7.333691175090    0.055068158405
 H   -0.868999321136    8.333541175090    0.035418158405
 H    2.429090678864    5.734571175090    0.237318158405
NA    2.296430678864    1.701911175090    0.194288158405
NA   -0.954329321136    2.477231175090   -0.046331841595
 O   -1.437515587451   -4.476243520411   -0.158456100915
 C   -0.906272373243   -5.628183965718   -0.133625752059
 N   -1.704143921965   -6.748127969470   -0.199346188758
 H   -2.706946338490   -6.599794042259   -0.267912363731
 C   -1.192187907095   -8.019510576146   -0.176430807878
 H   -1.908362397049   -8.839342768207   -0.232613353208
 C    0.159574578311   -8.198910807585   -0.085704312799
 H    0.591140715091   -9.198760568583   -0.066057910639
 C    0.972658253248   -7.018623203694   -0.020387526664
 N    2.307088691896   -7.132039174506    0.066235701024
 N    0.443404511967   -5.773727470905   -0.042536114068
 H    2.893271935707   -6.308844334553    0.110424294005
 H    2.754839593152   -8.039842539006    0.084828547112
