28

 N    1.438939362294    5.922318750444    0.170133567102
 C    0.926989362294    7.193698750444    0.147203567102
 H    1.643169362294    8.013538750444    0.203393567102
 C    0.641069362294    4.802378750444    0.104403567102
 O    1.172309362294    3.650428750444    0.129233567102
 N   -0.708610637706    4.947918750444    0.013293567102
 C   -1.237860637706    6.192818750444   -0.008866432898
 N   -2.572290637706    6.306228750444   -0.095506432898
 H   -3.158470637706    5.483038750444   -0.139696432898
 H   -3.020040637706    7.214038750444   -0.114106432898
 C   -0.424770637706    7.373108750444    0.056463567102
 H   -0.856340637706    8.372958750444    0.036813567102
 H    2.441749362294    5.773988750444    0.238713567102
NA    2.309089362294    1.741328750444    0.195683567102
NA   -0.941670637706    2.516648750444   -0.044936432898
 O   -1.455415835416   -4.531982679775   -0.160429304672
 C   -0.924172621209   -5.683923125081   -0.135598955816
 N   -1.722044169931   -6.803867128833   -0.201319392514
 H   -2.724846586455   -6.655533201623   -0.269885567488
 C   -1.210088155061   -8.075249735509   -0.178404011635
 H   -1.926262645015   -8.895081927570   -0.234586556965
 C    0.141674330345   -8.254649966949   -0.087677516556
 H    0.573240467125   -9.254499727946   -0.068031114396
 C    0.954758005282   -7.074362363057   -0.022360730421
 N    2.289188443930   -7.187778333869    0.064262497268
 N    0.425504264001   -5.829466630268   -0.044509317824
 H    2.875371687741   -6.364583493916    0.108451090249
 H    2.736939345186   -8.095581698370    0.082855343355
