28

 N    1.489574096014    6.079989051859    0.175715201892
 C    0.977624096014    7.351369051859    0.152785201892
 H    1.693804096014    8.171209051859    0.208975201892
 C    0.691704096014    4.960049051859    0.109985201892
 O    1.222944096014    3.808099051859    0.134815201892
 N   -0.657975903986    5.105589051859    0.018875201892
 C   -1.187225903986    6.350489051859   -0.003284798108
 N   -2.521655903986    6.463899051859   -0.089924798108
 H   -3.107835903986    5.640709051859   -0.134114798108
 H   -2.969405903986    7.371709051859   -0.108524798108
 C   -0.374135903986    7.530779051859    0.062045201892
 H   -0.805705903986    8.530629051859    0.042395201892
 H    2.492384096014    5.931659051859    0.244295201892
NA    2.359724096014    1.898999051859    0.201265201892
NA   -0.891035903986    2.674319051859   -0.039354798108
 O   -1.527016827279   -4.754939317229   -0.168322119698
 C   -0.995773613072   -5.906879762536   -0.143491770842
 N   -1.793645161794   -7.026823766288   -0.209212207540
 H   -2.796447578318   -6.878489839077   -0.277778382514
 C   -1.281689146924   -8.298206372963   -0.186296826661
 H   -1.997863636878   -9.118038565024   -0.242479371991
 C    0.070073338482   -8.477606604403   -0.095570331582
 H    0.501639475262   -9.477456365401   -0.075923929422
 C    0.883157013419   -7.297319000512   -0.030253545447
 N    2.217587452067   -7.410734971324    0.056369682242
 N    0.353903272138   -6.052423267723   -0.052402132850
 H    2.803770695878   -6.587540131371    0.100558275223
 H    2.665338353323   -8.318538335824    0.074962528329
