28

 N    1.502232779445    6.119406627213    0.177110610589
 C    0.990282779445    7.390786627213    0.154180610589
 H    1.706462779445    8.210626627213    0.210370610589
 C    0.704362779445    4.999466627213    0.111380610589
 O    1.235602779445    3.847516627213    0.136210610589
 N   -0.645317220555    5.145006627213    0.020270610589
 C   -1.174567220555    6.389906627213   -0.001889389411
 N   -2.508997220555    6.503316627213   -0.088529389411
 H   -3.095177220555    5.680126627213   -0.132719389411
 H   -2.956747220555    7.411126627213   -0.107129389411
 C   -0.361477220555    7.570196627213    0.063440610589
 H   -0.793047220555    8.570046627213    0.043790610589
 H    2.505042779445    5.971076627213    0.245690610589
NA    2.372382779445    1.938416627213    0.202660610589
NA   -0.878377220555    2.713736627213   -0.037959389411
 O   -1.544917075245   -4.810678476592   -0.170295323454
 C   -1.013673861037   -5.962618921899   -0.145464974598
 N   -1.811545409759   -7.082562925651   -0.211185411297
 H   -2.814347826284   -6.934228998441   -0.279751586270
 C   -1.299589394890   -8.353945532327   -0.188270030417
 H   -2.015763884843   -9.173777724388   -0.244452575747
 C    0.052173090516   -8.533345763766   -0.097543535339
 H    0.483739227296   -9.533195524764   -0.077897133178
 C    0.865256765453   -7.353058159875   -0.032226749204
 N    2.199687204101   -7.466474130687    0.054396478485
 N    0.336003024172   -6.108162427086   -0.054375336607
 H    2.785870447912   -6.643279290734    0.098585071466
 H    2.647438105358   -8.374277495188    0.072989324572
