28

 N    1.514891462875    6.158824202567    0.178506019286
 C    1.002941462875    7.430204202567    0.155576019286
 H    1.719121462875    8.250044202567    0.211766019286
 C    0.717021462875    5.038884202567    0.112776019286
 O    1.248261462875    3.886934202567    0.137606019286
 N   -0.632658537125    5.184424202567    0.021666019286
 C   -1.161908537125    6.429324202567   -0.000493980714
 N   -2.496338537125    6.542734202567   -0.087133980714
 H   -3.082518537125    5.719544202567   -0.131323980714
 H   -2.944088537125    7.450544202567   -0.105733980714
 C   -0.348818537125    7.609614202567    0.064836019286
 H   -0.780388537125    8.609464202567    0.045186019286
 H    2.517701462875    6.010494202567    0.247086019286
NA    2.385041462875    1.977834202567    0.204056019286
NA   -0.865718537125    2.753154202567   -0.036563980714
 O   -1.562817323211   -4.866417635956   -0.172268527211
 C   -1.031574109003   -6.018358081263   -0.147438178355
 N   -1.829445657725   -7.138302085015   -0.213158615053
 H   -2.832248074250   -6.989968157804   -0.281724790027
 C   -1.317489642855   -8.409684691691   -0.190243234174
 H   -2.033664132809   -9.229516883752   -0.246425779504
 C    0.034272842550   -8.589084923130   -0.099516739095
 H    0.465838979330   -9.588934684128   -0.079870336935
 C    0.847356517488   -7.408797319239   -0.034199952960
 N    2.181786956135   -7.522213290051    0.052423274729
 N    0.318102776206   -6.163901586450   -0.056348540363
 H    2.767970199947   -6.699018450098    0.096611867710
 H    2.629537857392   -8.430016654551    0.071016120816
