28

 N    1.565526196595    6.316494503982    0.184087654076
 C    1.053576196595    7.587874503982    0.161157654076
 H    1.769756196595    8.407714503982    0.217347654076
 C    0.767656196595    5.196554503982    0.118357654076
 O    1.298896196595    4.044604503982    0.143187654076
 N   -0.582023803405    5.342094503982    0.027247654076
 C   -1.111273803405    6.586994503982    0.005087654076
 N   -2.445703803405    6.700404503982   -0.081552345924
 H   -3.031883803405    5.877214503982   -0.125742345924
 H   -2.893453803405    7.608214503982   -0.100152345924
 C   -0.298183803405    7.767284503982    0.070417654076
 H   -0.729753803405    8.767134503982    0.050767654076
 H    2.568336196595    6.168164503982    0.252667654076
NA    2.435676196595    2.135504503982    0.209637654076
NA   -0.815083803405    2.910824503982   -0.030982345924
 O   -1.634418315074   -5.089374273410   -0.180161342237
 C   -1.103175100866   -6.241314718717   -0.155330993381
 N   -1.901046649588   -7.361258722469   -0.221051430079
 H   -2.903849066113   -7.212924795258   -0.289617605053
 C   -1.389090634718   -8.632641329145   -0.198136049200
 H   -2.105265124672   -9.452473521206   -0.254318594530
 C   -0.037328149313   -8.812041560584   -0.107409554121
 H    0.394237987467   -9.811891321582   -0.087763151961
 C    0.775755525625   -7.631753956693   -0.042092767986
 N    2.110185964272   -7.745169927505    0.044530459702
 N    0.246501784343   -6.386858223904   -0.064241355389
 H    2.696369208084   -6.921975087552    0.088719052684
 H    2.557936865529   -8.652973292005    0.063123305790
