28

 N    1.641478297176    6.552999956105    0.192460106260
 C    1.129528297176    7.824379956105    0.169530106260
 H    1.845708297176    8.644219956105    0.225720106260
 C    0.843608297176    5.433059956105    0.126730106260
 O    1.374848297176    4.281109956105    0.151560106260
 N   -0.506071702824    5.578599956105    0.035620106260
 C   -1.035321702824    6.823499956105    0.013460106260
 N   -2.369751702824    6.936909956105   -0.073179893740
 H   -2.955931702824    6.113719956105   -0.117369893740
 H   -2.817501702824    7.844719956105   -0.091779893740
 C   -0.222231702824    8.003789956105    0.078790106260
 H   -0.653801702824    9.003639956105    0.059140106260
 H    2.644288297176    6.404669956105    0.261040106260
NA    2.511628297176    2.372009956105    0.218010106260
NA   -0.739131702824    3.147329956105   -0.022609893740
 O   -1.741819802869   -5.423809229591   -0.192000564776
 C   -1.210576588661   -6.575749674898   -0.167170215920
 N   -2.008448137383   -7.695693678650   -0.232890652619
 H   -3.011250553908   -7.547359751440   -0.301456827592
 C   -1.496492122513   -8.967076285326   -0.209975271739
 H   -2.212666612467   -9.786908477387   -0.266157817069
 C   -0.144729637107   -9.146476516766   -0.119248776660
 H    0.286836499673  -10.146326277763   -0.099602374500
 C    0.668354037830   -7.966188912874   -0.053931990525
 N    2.002784476478   -8.079604883686    0.032691237163
 N    0.139100296549   -6.721293180085   -0.076080577929
 H    2.588967720289   -7.256410043733    0.076879830144
 H    2.450535377734   -8.987408248187    0.051284083251
