28

 N    1.666795664036    6.631835106813    0.195250923655
 C    1.154845664036    7.903215106813    0.172320923655
 H    1.871025664036    8.723055106813    0.228510923655
 C    0.868925664036    5.511895106813    0.129520923655
 O    1.400165664036    4.359945106813    0.154350923655
 N   -0.480754335964    5.657435106813    0.038410923655
 C   -1.010004335964    6.902335106813    0.016250923655
 N   -2.344434335964    7.015745106813   -0.070389076345
 H   -2.930614335964    6.192555106813   -0.114579076345
 H   -2.792184335964    7.923555106813   -0.088989076345
 C   -0.196914335964    8.082625106813    0.081580923655
 H   -0.628484335964    9.082475106813    0.061930923655
 H    2.669605664036    6.483505106813    0.263830923655
NA    2.536945664036    2.450845106813    0.220800923655
NA   -0.713814335964    3.226165106813   -0.019819076345
 O   -1.777620298800   -5.535287548318   -0.195946972289
 C   -1.246377084592   -6.687227993625   -0.171116623433
 N   -2.044248633314   -7.807171997377   -0.236837060132
 H   -3.047051049839   -7.658838070167   -0.305403235105
 C   -1.532292618444   -9.078554604053   -0.213921679252
 H   -2.248467108398   -9.898386796114   -0.270104224582
 C   -0.180530133039   -9.257954835493   -0.123195184173
 H    0.251036003741  -10.257804596490   -0.103548782013
 C    0.632553541898   -8.077667231601   -0.057878398038
 N    1.966983980546   -8.191083202413    0.028744829650
 N    0.103299800617   -6.832771498812   -0.080026985442
 H    2.553167224357   -7.367888362460    0.072933422631
 H    2.414734881803   -9.098886566914    0.047337675738
