28

 N    1.679454347466    6.671252682167    0.196646332352
 C    1.167504347466    7.942632682167    0.173716332352
 H    1.883684347466    8.762472682167    0.229906332352
 C    0.881584347466    5.551312682167    0.130916332352
 O    1.412824347466    4.399362682167    0.155746332352
 N   -0.468095652534    5.696852682167    0.039806332352
 C   -0.997345652534    6.941752682167    0.017646332352
 N   -2.331775652534    7.055162682167   -0.068993667648
 H   -2.917955652534    6.231972682167   -0.113183667648
 H   -2.779525652534    7.962972682167   -0.087593667648
 C   -0.184255652534    8.122042682167    0.082976332352
 H   -0.615825652534    9.121892682167    0.063326332352
 H    2.682264347466    6.522922682167    0.265226332352
NA    2.549604347466    2.490262682167    0.222196332352
NA   -0.701155652534    3.265582682167   -0.018423667648
 O   -1.795520546766   -5.591026707682   -0.197920176046
 C   -1.264277332558   -6.742967152989   -0.173089827189
 N   -2.062148881280   -7.862911156741   -0.238810263888
 H   -3.064951297805   -7.714577229530   -0.307376438862
 C   -1.550192866410   -9.134293763417   -0.215894883009
 H   -2.266367356364   -9.954125955478   -0.272077428339
 C   -0.198430381005   -9.313693994856   -0.125168387930
 H    0.233135755775  -10.313543755854   -0.105521985769
 C    0.614653293933   -8.133406390965   -0.059851601795
 N    1.949083732580   -8.246822361777    0.026771625894
 N    0.085399552651   -6.888510658176   -0.082000189198
 H    2.535266976392   -7.423627521824    0.070960218875
 H    2.396834633837   -9.154625726277    0.045364471981
