28

 N    1.730089081186    6.828922983582    0.202227967142
 C    1.218139081186    8.100302983582    0.179297967142
 H    1.934319081186    8.920142983582    0.235487967142
 C    0.932219081186    5.708982983582    0.136497967142
 O    1.463459081186    4.557032983582    0.161327967142
 N   -0.417460918814    5.854522983582    0.045387967142
 C   -0.946710918814    7.099422983582    0.023227967142
 N   -2.281140918814    7.212832983582   -0.063412032858
 H   -2.867320918814    6.389642983582   -0.107602032858
 H   -2.728890918814    8.120642983582   -0.082012032858
 C   -0.133620918814    8.279712983582    0.088557967142
 H   -0.565190918814    9.279562983582    0.068907967142
 H    2.732899081186    6.680592983582    0.270807967142
NA    2.600239081186    2.647932983582    0.227777967142
NA   -0.650520918814    3.423252983582   -0.012842032858
 O   -1.867121538629   -5.813983345136   -0.205812991072
 C   -1.335878324421   -6.965923790443   -0.180982642216
 N   -2.133749873143   -8.085867794195   -0.246703078914
 H   -3.136552289668   -7.937533866984   -0.315269253888
 C   -1.621793858273   -9.357250400871   -0.223787698035
 H   -2.337968348227  -10.177082592932   -0.279970243365
 C   -0.270031372868   -9.536650632310   -0.133061202956
 H    0.161534763912  -10.536500393308   -0.113414800796
 C    0.543052302070   -8.356363028419   -0.067744416821
 N    1.877482740717   -8.469778999231    0.018878810868
 N    0.013798560788   -7.111467295630   -0.089893004224
 H    2.463665984529   -7.646584159278    0.063067403849
 H    2.325233641974   -9.377582363732    0.037471656955
