28

 N    1.742747764617    6.868340558936    0.203623375839
 C    1.230797764617    8.139720558936    0.180693375839
 H    1.946977764617    8.959560558936    0.236883375839
 C    0.944877764617    5.748400558936    0.137893375839
 O    1.476117764617    4.596450558936    0.162723375839
 N   -0.404802235383    5.893940558936    0.046783375839
 C   -0.934052235383    7.138840558936    0.024623375839
 N   -2.268482235383    7.252250558936   -0.062016624161
 H   -2.854662235383    6.429060558936   -0.106206624161
 H   -2.716232235383    8.160060558936   -0.080616624161
 C   -0.120962235383    8.319130558936    0.089953375839
 H   -0.552532235383    9.318980558936    0.070303375839
 H    2.745557764617    6.720010558936    0.272203375839
NA    2.612897764617    2.687350558936    0.229173375839
NA   -0.637862235383    3.462670558936   -0.011446624161
 O   -1.885021786595   -5.869722504500   -0.207786194828
 C   -1.353778572387   -7.021662949807   -0.182955845972
 N   -2.151650121109   -8.141606953559   -0.248676282671
 H   -3.154452537634   -7.993273026348   -0.317242457644
 C   -1.639694106239   -9.412989560234   -0.225760901791
 H   -2.355868596193  -10.232821752295   -0.281943447121
 C   -0.287931620833   -9.592389791674   -0.135034406712
 H    0.143634515947  -10.592239552672   -0.115388004552
 C    0.525152054104   -8.412102187783   -0.069717620577
 N    1.859582492752   -8.525518158595    0.016905607111
 N   -0.004101687177   -7.167206454994   -0.091866207981
 H    2.445765736563   -7.702323318642    0.061094200092
 H    2.307333394008   -9.433321523095    0.035498453199
