28

 N    1.755406448047    6.907758134290    0.205018784537
 C    1.243456448047    8.179138134290    0.182088784537
 H    1.959636448047    8.998978134290    0.238278784537
 C    0.957536448047    5.787818134290    0.139288784537
 O    1.488776448047    4.635868134290    0.164118784537
 N   -0.392143551953    5.933358134290    0.048178784537
 C   -0.921393551953    7.178258134290    0.026018784537
 N   -2.255823551953    7.291668134290   -0.060621215463
 H   -2.842003551953    6.468478134290   -0.104811215463
 H   -2.703573551953    8.199478134290   -0.079221215463
 C   -0.108303551953    8.358548134290    0.091348784537
 H   -0.539873551953    9.358398134290    0.071698784537
 H    2.758216448047    6.759428134290    0.273598784537
NA    2.625556448047    2.726768134290    0.230568784537
NA   -0.625203551953    3.502088134290   -0.010051215463
 O   -1.902922034560   -5.925461663863   -0.209759398585
 C   -1.371678820353   -7.077402109170   -0.184929049729
 N   -2.169550369075   -8.197346112922   -0.250649486427
 H   -3.172352785599   -8.049012185712   -0.319215661401
 C   -1.657594354205   -9.468728719598   -0.227734105548
 H   -2.373768844159  -10.288560911659   -0.283916650878
 C   -0.305831868799   -9.648128951038   -0.137007610469
 H    0.125734267981  -10.647978712035   -0.117361208309
 C    0.507251806138   -8.467841347146   -0.071690824334
 N    1.841682244786   -8.581257317958    0.014932403355
 N   -0.022001935143   -7.222945614357   -0.093839411737
 H    2.427865488597   -7.758062478005    0.059120996336
 H    2.289433146042   -9.489060682459    0.033525249442
