28

 N    1.780723814907    6.986593284998    0.207809601932
 C    1.268773814907    8.257973284998    0.184879601932
 H    1.984953814907    9.077813284998    0.241069601932
 C    0.982853814907    5.866653284998    0.142079601932
 O    1.514093814907    4.714703284998    0.166909601932
 N   -0.366826185093    6.012193284998    0.050969601932
 C   -0.896076185093    7.257093284998    0.028809601932
 N   -2.230506185093    7.370503284998   -0.057830398068
 H   -2.816686185093    6.547313284998   -0.102020398068
 H   -2.678256185093    8.278313284998   -0.076430398068
 C   -0.082986185093    8.437383284998    0.094139601932
 H   -0.514556185093    9.437233284998    0.074489601932
 H    2.783533814907    6.838263284998    0.276389601932
NA    2.650873814907    2.805603284998    0.233359601932
NA   -0.599886185093    3.580923284998   -0.007260398068
 O   -1.938722530492   -6.036939982590   -0.213705806098
 C   -1.407479316284   -7.188880427897   -0.188875457242
 N   -2.205350865006   -8.308824431649   -0.254595893940
 H   -3.208153281531   -8.160490504439   -0.323162068914
 C   -1.693394850136   -9.580207038325   -0.231680513061
 H   -2.409569340090  -10.400039230386   -0.287863058391
 C   -0.341632364731   -9.759607269765   -0.140954017982
 H    0.089933772049  -10.759457030762   -0.121307615822
 C    0.471451310207   -8.579319665873   -0.075637231847
 N    1.805881748854   -8.692735636685    0.010985995842
 N   -0.057802431075   -7.334423933084   -0.097785819250
 H    2.392064992666   -7.869540796732    0.055174588823
 H    2.253632650111   -9.600539001186    0.029578841929
