28

 N    1.806041181767    7.065428435705    0.210600419326
 C    1.294091181767    8.336808435705    0.187670419326
 H    2.010271181767    9.156648435705    0.243860419326
 C    1.008171181767    5.945488435705    0.144870419326
 O    1.539411181767    4.793538435705    0.169700419326
 N   -0.341508818233    6.091028435705    0.053760419326
 C   -0.870758818233    7.335928435705    0.031600419326
 N   -2.205188818233    7.449338435705   -0.055039580674
 H   -2.791368818233    6.626148435705   -0.099229580674
 H   -2.652938818233    8.357148435705   -0.073639580674
 C   -0.057668818233    8.516218435705    0.096930419326
 H   -0.489238818233    9.516068435705    0.077280419326
 H    2.808851181767    6.917098435705    0.279180419326
NA    2.676191181767    2.884438435705    0.236150419326
NA   -0.574568818233    3.659758435705   -0.004469580674
 O   -1.974523026424   -6.148418301317   -0.217652213611
 C   -1.443279812216   -7.300358746624   -0.192821864755
 N   -2.241151360938   -8.420302750376   -0.258542301453
 H   -3.243953777463   -8.271968823166   -0.327108476427
 C   -1.729195346068   -9.691685357052   -0.235626920574
 H   -2.445369836022  -10.511517549113   -0.291809465904
 C   -0.377432860662   -9.871085588492   -0.144900425495
 H    0.054133276118  -10.870935349489   -0.125254023335
 C    0.435650814275   -8.690797984600   -0.079583639360
 N    1.770081252923   -8.804213955412    0.007039588329
 N   -0.093602927006   -7.445902251811   -0.101732226763
 H    2.356264496734   -7.981019115459    0.051228181310
 H    2.217832154179   -9.712017319913    0.025632434416
