12

 C   -1.542243408818    1.250553473202   -0.793063181897
 C   -0.429901408818    0.231075473202   -0.793063181897
 O   -0.934232408818   -1.035377526798   -0.793063181897
 C    0.080233591182   -2.069116526798   -0.793063181897
 O    0.767738591182    0.475568473202   -0.793063181897
 H   -1.109673408818    2.257563473202   -0.793063181897
 H   -2.174580408818    1.107981473202    0.095551818103
 H   -2.174580408818    1.107981473202   -1.681678181897
 H   -0.473863408818   -3.014240526798   -0.793063181897
 H    0.710028591182   -1.982817526798    0.103126818103
 H    0.710028591182   -1.982817526798   -1.689253181897
 K    0.767738591182    0.475568473202    1.506936818103
