12

 C   -1.542243408818    1.250553473202   -0.999949229348
 C   -0.429901408818    0.231075473202   -0.999949229348
 O   -0.934232408818   -1.035377526798   -0.999949229348
 C    0.080233591182   -2.069116526798   -0.999949229348
 O    0.767738591182    0.475568473202   -0.999949229348
 H   -1.109673408818    2.257563473202   -0.999949229348
 H   -2.174580408818    1.107981473202   -0.111334229348
 H   -2.174580408818    1.107981473202   -1.888564229348
 H   -0.473863408818   -3.014240526798   -0.999949229348
 H    0.710028591182   -1.982817526798   -0.103759229348
 H    0.710028591182   -1.982817526798   -1.896139229348
 K    0.767738591182    0.475568473202    1.900050770652
