12

 C   -1.542243408818    1.250553473202   -1.689569387519
 C   -0.429901408818    0.231075473202   -1.689569387519
 O   -0.934232408818   -1.035377526798   -1.689569387519
 C    0.080233591182   -2.069116526798   -1.689569387519
 O    0.767738591182    0.475568473202   -1.689569387519
 H   -1.109673408818    2.257563473202   -1.689569387519
 H   -2.174580408818    1.107981473202   -0.800954387519
 H   -2.174580408818    1.107981473202   -2.578184387519
 H   -0.473863408818   -3.014240526798   -1.689569387519
 H    0.710028591182   -1.982817526798   -0.793379387519
 H    0.710028591182   -1.982817526798   -2.585759387519
 K    0.767738591182    0.475568473202    3.210430612481
