12

 C   -1.542243408818    1.250553473202   -1.724050395427
 C   -0.429901408818    0.231075473202   -1.724050395427
 O   -0.934232408818   -1.035377526798   -1.724050395427
 C    0.080233591182   -2.069116526798   -1.724050395427
 O    0.767738591182    0.475568473202   -1.724050395427
 H   -1.109673408818    2.257563473202   -1.724050395427
 H   -2.174580408818    1.107981473202   -0.835435395427
 H   -2.174580408818    1.107981473202   -2.612665395427
 H   -0.473863408818   -3.014240526798   -1.724050395427
 H    0.710028591182   -1.982817526798   -0.827860395427
 H    0.710028591182   -1.982817526798   -2.620240395427
 K    0.767738591182    0.475568473202    3.275949604573
