12

 C   -1.542243408818    1.250553473202   -2.758480632684
 C   -0.429901408818    0.231075473202   -2.758480632684
 O   -0.934232408818   -1.035377526798   -2.758480632684
 C    0.080233591182   -2.069116526798   -2.758480632684
 O    0.767738591182    0.475568473202   -2.758480632684
 H   -1.109673408818    2.257563473202   -2.758480632684
 H   -2.174580408818    1.107981473202   -1.869865632684
 H   -2.174580408818    1.107981473202   -3.647095632684
 H   -0.473863408818   -3.014240526798   -2.758480632684
 H    0.710028591182   -1.982817526798   -1.862290632684
 H    0.710028591182   -1.982817526798   -3.654670632684
 K    0.767738591182    0.475568473202    5.241519367316
