12

 C   -1.542243408818    1.250553473202   -2.896404664318
 C   -0.429901408818    0.231075473202   -2.896404664318
 O   -0.934232408818   -1.035377526798   -2.896404664318
 C    0.080233591182   -2.069116526798   -2.896404664318
 O    0.767738591182    0.475568473202   -2.896404664318
 H   -1.109673408818    2.257563473202   -2.896404664318
 H   -2.174580408818    1.107981473202   -2.007789664318
 H   -2.174580408818    1.107981473202   -3.785019664318
 H   -0.473863408818   -3.014240526798   -2.896404664318
 H    0.710028591182   -1.982817526798   -2.000214664318
 H    0.710028591182   -1.982817526798   -3.792594664318
 K    0.767738591182    0.475568473202    5.503595335682
