17

 N   -1.914685828367   -1.644593503336   -0.134368575835
 C   -0.704497761523   -0.989387299660   -0.130406951867
 N    0.528914652780   -1.588064994122   -0.118368666962
 C    1.499337852836   -0.697888852511   -0.130241123935
 N    1.296261015423    0.663749281003   -0.137076284277
 H    2.100088140674    1.283709820758   -0.219064306699
 N    2.824792607073   -1.116563574191   -0.208588427170
 H    3.479328812405   -0.584760349791    0.359052349560
 H    2.903597694464   -2.117263718126   -0.047005089181
 C    0.036987273106    1.349782984534   -0.124122497600
 O    0.009406904001    2.577956069311   -0.128210626028
 C   -1.035797852870    0.376089595260   -0.117921299660
 N   -2.406871154639    0.562420640573   -0.117996484376
 C   -2.900394649150   -0.676182373472   -0.128326584041
 H   -3.957892562418   -0.930328995304   -0.131273228467
 H   -2.039782824898   -2.651176588568   -0.143028126866
NA    1.304857126113    0.660646825194    0.862881955675
