17

 N   -1.915140030927   -1.644429575320   -0.187204516223
 C   -0.704951964083   -0.989223371644   -0.183242892255
 N    0.528460450220   -1.587901066106   -0.171204607350
 C    1.498883650276   -0.697724924495   -0.183077064323
 N    1.295806812863    0.663913209019   -0.189912224665
 H    2.099633938114    1.283873748774   -0.271900247087
 N    2.824338404513   -1.116399646175   -0.261424367558
 H    3.478874609845   -0.584596421775    0.306216409172
 H    2.903143491904   -2.117099790110   -0.099841029569
 C    0.036533070546    1.349946912550   -0.176958437988
 O    0.008952701441    2.578119997327   -0.181046566416
 C   -1.036252055430    0.376253523276   -0.170757240048
 N   -2.407325357199    0.562584568589   -0.170832424764
 C   -2.900848851710   -0.676018445456   -0.181162524429
 H   -3.958346764978   -0.930165067288   -0.184109168855
 H   -2.040237027458   -2.651012660552   -0.195864067254
NA    1.307841367829    0.659569770886    1.210029311268
