17

 N   -1.915480682846   -1.644306629308   -0.226831471514
 C   -0.705292616002   -0.989100425632   -0.222869847546
 N    0.528119798301   -1.587778120094   -0.210831562641
 C    1.498542998357   -0.697601978483   -0.222704019614
 N    1.295466160944    0.664036155031   -0.229539179956
 H    2.099293286195    1.283996694786   -0.311527202378
 N    2.823997752594   -1.116276700163   -0.301051322849
 H    3.478533957926   -0.584473475763    0.266589453881
 H    2.902802839985   -2.116976844098   -0.139467984860
 C    0.036192418627    1.350069858562   -0.216585393279
 O    0.008612049522    2.578242943339   -0.220673521707
 C   -1.036592707349    0.376376469288   -0.210384195339
 N   -2.407666009118    0.562707514601   -0.210459380055
 C   -2.901189503629   -0.675895499444   -0.220789479720
 H   -3.958687416897   -0.930042121276   -0.223736124146
 H   -2.040577679377   -2.650889714540   -0.235491022545
NA    1.310079549116    0.658761980156    1.470389827963
