17

 N   -1.915707784126   -1.644224665301   -0.253249441708
 C   -0.705519717282   -0.989018461625   -0.249287817740
 N    0.527892697021   -1.587696156087   -0.237249532835
 C    1.498315897077   -0.697520014476   -0.249121989808
 N    1.295239059664    0.664118119038   -0.255957150150
 H    2.099066184915    1.284078658793   -0.337945172572
 N    2.823770651314   -1.116194736156   -0.327469293043
 H    3.478306856646   -0.584391511756    0.240171483687
 H    2.902575738705   -2.116894880091   -0.165885955054
 C    0.035965317347    1.350151822569   -0.243003363473
 O    0.008384948242    2.578324907346   -0.247091491901
 C   -1.036819808629    0.376458433295   -0.236802165533
 N   -2.407893110398    0.562789478608   -0.236877350249
 C   -2.901416604909   -0.675813535437   -0.247207449914
 H   -3.958914518177   -0.929960157269   -0.250154094340
 H   -2.040804780657   -2.650807750533   -0.261908992739
NA    1.311571669975    0.658223453002    1.643963505760
