17

 N   -1.924905385956   -1.640905122980   -1.323177234559
 C   -0.714717319112   -0.985698919304   -1.319215610591
 N    0.518695095191   -1.584376613766   -1.307177325686
 C    1.489118295247   -0.694200472155   -1.319049782659
 N    1.286041457834    0.667437661359   -1.325884943001
 H    2.089868583085    1.287398201114   -1.407872965423
 N    2.814573049484   -1.112875193835   -1.397397085894
 H    3.469109254816   -0.581071969435   -0.829756309164
 H    2.893378136875   -2.113575337770   -1.235813747905
 C    0.026767715517    1.353471364890   -1.312931156324
 O   -0.000812653588    2.581644449667   -1.317019284752
 C   -1.046017410459    0.379777975616   -1.306729958384
 N   -2.417090712228    0.566109020929   -1.306805143100
 C   -2.910614206739   -0.672493993116   -1.317135242765
 H   -3.968112120007   -0.926640614948   -1.320081887191
 H   -2.050002382487   -2.647488208212   -1.331836785590
NA    1.372002564732    0.636413103270    8.673697456524
