17

 N   -1.916048436046   -1.644101719289   -0.292876396999
 C   -0.705860369202   -0.988895515613   -0.288914773031
 N    0.527552045101   -1.587573210075   -0.276876488126
 C    1.497975245157   -0.697397068464   -0.288748945099
 N    1.294898407744    0.664241065050   -0.295584105441
 H    2.098725532995    1.284201604805   -0.377572127863
 N    2.823429999394   -1.116071790144   -0.367096248334
 H    3.477966204726   -0.584268565744    0.200544528396
 H    2.902235086785   -2.116771934079   -0.205512910345
 C    0.035624665427    1.350274768581   -0.282630318764
 O    0.008044296322    2.578447853358   -0.286718447192
 C   -1.037160460549    0.376581379307   -0.276429120824
 N   -2.408233762318    0.562912424620   -0.276504305540
 C   -2.901757256829   -0.675690589425   -0.286834405205
 H   -3.959255170097   -0.929837211257   -0.289781049631
 H   -2.041145432577   -2.650684804521   -0.301535948030
NA    1.313809851262    0.657415662271    1.904324022455
