17

 N   -1.916275537325   -1.644019755281   -0.319294367192
 C   -0.706087470481   -0.988813551605   -0.315332743224
 N    0.527324943822   -1.587491246067   -0.303294458319
 C    1.497748143878   -0.697315104456   -0.315166915292
 N    1.294671306465    0.664323029058   -0.322002075634
 H    2.098498431716    1.284283568813   -0.403990098056
 N    2.823202898115   -1.115989826136   -0.393514218527
 H    3.477739103447   -0.584186601736    0.174126558203
 H    2.902007985506   -2.116689970071   -0.231930880538
 C    0.035397564148    1.350356732589   -0.309048288957
 O    0.007817195043    2.578529817366   -0.313136417385
 C   -1.037387561828    0.376663343315   -0.302847091017
 N   -2.408460863597    0.562994388628   -0.302922275733
 C   -2.901984358108   -0.675608625417   -0.313252375398
 H   -3.959482271376   -0.929755247249   -0.316199019824
 H   -2.041372533856   -2.650602840513   -0.327953918223
NA    1.315301972120    0.656877135117    2.077897700252
