17

 N   -1.916729739885   -1.643855827265   -0.372130307580
 C   -0.706541673041   -0.988649623589   -0.368168683612
 N    0.526870741262   -1.587327318051   -0.356130398707
 C    1.497293941318   -0.697151176440   -0.368002855680
 N    1.294217103905    0.664486957074   -0.374838016022
 H    2.098044229156    1.284447496829   -0.456826038444
 N    2.822748695555   -1.115825898120   -0.446350158915
 H    3.477284900887   -0.584022673720    0.121290617815
 H    2.901553782946   -2.116526042055   -0.284766820926
 C    0.034943361588    1.350520660605   -0.361884229345
 O    0.007362992483    2.578693745382   -0.365972357773
 C   -1.037841764388    0.376827271331   -0.355683031405
 N   -2.408915066157    0.563158316644   -0.355758216121
 C   -2.902438560668   -0.675444697401   -0.366088315786
 H   -3.959936473936   -0.929591319233   -0.369034960212
 H   -2.041826736416   -2.650438912497   -0.380789858611
NA    1.318286213837    0.655800080809    2.425045055845
