17

 N   -1.916843290525   -1.643814845261   -0.385339292677
 C   -0.706655223681   -0.988608641585   -0.381377668709
 N    0.526757190622   -1.587286336047   -0.369339383804
 C    1.497180390678   -0.697110194436   -0.381211840777
 N    1.294103553265    0.664527939078   -0.388047001119
 H    2.097930678516    1.284488478833   -0.470035023541
 N    2.822635144915   -1.115784916116   -0.459559144012
 H    3.477171350247   -0.583981691716    0.108081632718
 H    2.901440232306   -2.116485060051   -0.297975806023
 C    0.034829810948    1.350561642609   -0.375093214442
 O    0.007249441843    2.578734727386   -0.379181342870
 C   -1.037955315028    0.376868253335   -0.368892016502
 N   -2.409028616797    0.563199298648   -0.368967201218
 C   -2.902552111308   -0.675403715397   -0.379297300883
 H   -3.960050024576   -0.929550337229   -0.382243945309
 H   -2.041940287056   -2.650397930493   -0.393998843708
NA    1.319032274266    0.655530817232    2.511831894743
