17

 N   -1.917297493084   -1.643650917245   -0.438175233065
 C   -0.707109426240   -0.988444713569   -0.434213609097
 N    0.526302988063   -1.587122408031   -0.422175324192
 C    1.496726188119   -0.696946266420   -0.434047781165
 N    1.293649350706    0.664691867094   -0.440882941507
 H    2.097476475957    1.284652406849   -0.522870963929
 N    2.822180942356   -1.115620988100   -0.512395084400
 H    3.476717147688   -0.583817763700    0.055245692330
 H    2.900986029747   -2.116321132035   -0.350811746411
 C    0.034375608389    1.350725570625   -0.427929154830
 O    0.006795239284    2.578898655402   -0.432017283258
 C   -1.038409517587    0.377032181351   -0.421727956890
 N   -2.409482819356    0.563363226664   -0.421803141606
 C   -2.903006313867   -0.675239787381   -0.432133241271
 H   -3.960504227135   -0.929386409213   -0.435079885697
 H   -2.042394489615   -2.650234002477   -0.446834784096
NA    1.322016515982    0.654453762925    2.858979250337
