17

 N   -1.917524594364   -1.643568953237   -0.464593203259
 C   -0.707336527520   -0.988362749561   -0.460631579291
 N    0.526075886783   -1.587040444023   -0.448593294386
 C    1.496499086839   -0.696864302412   -0.460465751359
 N    1.293422249426    0.664773831102   -0.467300911701
 H    2.097249374677    1.284734370857   -0.549288934123
 N    2.821953841076   -1.115539024092   -0.538813054594
 H    3.476490046408   -0.583735799692    0.028827722136
 H    2.900758928467   -2.116239168027   -0.377229716605
 C    0.034148507109    1.350807534633   -0.454347125024
 O    0.006568138004    2.578980619410   -0.458435253452
 C   -1.038636618867    0.377114145359   -0.448145927084
 N   -2.409709920636    0.563445190672   -0.448221111800
 C   -2.903233415147   -0.675157823373   -0.458551211465
 H   -3.960731328415   -0.929304445205   -0.461497855891
 H   -2.042621590895   -2.650152038469   -0.473252754290
NA    1.323508636840    0.653915235771    3.032552928133
