17

 N   -1.917978796923   -1.643405025222   -0.517429143646
 C   -0.707790730079   -0.988198821546   -0.513467519678
 N    0.525621684224   -1.586876516008   -0.501429234773
 C    1.496044884280   -0.696700374397   -0.513301691746
 N    1.292968046867    0.664937759117   -0.520136852088
 H    2.096795172118    1.284898298872   -0.602124874510
 N    2.821499638517   -1.115375096077   -0.591648994981
 H    3.476035843849   -0.583571871677   -0.024008218251
 H    2.900304725908   -2.116075240012   -0.430065656992
 C    0.033694304550    1.350971462648   -0.507183065411
 O    0.006113935445    2.579144547425   -0.511271193839
 C   -1.039090821426    0.377278073374   -0.500981867471
 N   -2.410164123195    0.563609118687   -0.501057052187
 C   -2.903687617706   -0.674993895358   -0.511387151852
 H   -3.961185530974   -0.929140517190   -0.514333796278
 H   -2.043075793454   -2.649988110454   -0.526088694677
NA    1.326492878557    0.652838181463    3.379700283726
