17

 N   -1.918432999483   -1.643241097206   -0.570265084034
 C   -0.708244932639   -0.988034893530   -0.566303460066
 N    0.525167481664   -1.586712587992   -0.554265175161
 C    1.495590681720   -0.696536446381   -0.566137632134
 N    1.292513844307    0.665101687133   -0.572972792476
 H    2.096340969558    1.285062226888   -0.654960814898
 N    2.821045435957   -1.115211168061   -0.644484935369
 H    3.475581641289   -0.583407943661   -0.076844158639
 H    2.899850523348   -2.115911311996   -0.482901597380
 C    0.033240101990    1.351135390664   -0.560019005799
 O    0.005659732885    2.579308475441   -0.564107134227
 C   -1.039545023986    0.377442001390   -0.553817807859
 N   -2.410618325755    0.563773046703   -0.553892992575
 C   -2.904141820266   -0.674829967342   -0.564223092240
 H   -3.961639733534   -0.928976589174   -0.567169736666
 H   -2.043529996014   -2.649824182438   -0.578924635065
NA    1.329477120273    0.651761127155    3.726847639320
