17

 N   -1.918546550123   -1.643200115202   -0.583474069131
 C   -0.708358483279   -0.987993911526   -0.579512445163
 N    0.525053931024   -1.586671605988   -0.567474160258
 C    1.495477131080   -0.696495464377   -0.579346617231
 N    1.292400293667    0.665142669137   -0.586181777573
 H    2.096227418918    1.285103208892   -0.668169799995
 N    2.820931885317   -1.115170186057   -0.657693920466
 H    3.475468090649   -0.583366961657   -0.090053143736
 H    2.899736972708   -2.115870329992   -0.496110582477
 C    0.033126551350    1.351176372668   -0.573227990896
 O    0.005546182245    2.579349457445   -0.577316119324
 C   -1.039658574626    0.377482983394   -0.567026792956
 N   -2.410731876395    0.563814028707   -0.567101977672
 C   -2.904255370906   -0.674788985338   -0.577432077337
 H   -3.961753284174   -0.928935607170   -0.580378721763
 H   -2.043643546654   -2.649783200434   -0.592133620162
NA    1.330223180702    0.651491863578    3.813634478218
