17

 N   -1.919454955242   -1.642872259170   -0.689145949907
 C   -0.709266888398   -0.987666055494   -0.685184325939
 N    0.524145525905   -1.586343749956   -0.673146041034
 C    1.494568725961   -0.696167608345   -0.685018498007
 N    1.291491888548    0.665470525169   -0.691853658349
 H    2.095319013799    1.285431064924   -0.773841680771
 N    2.820023480198   -1.114842330025   -0.763365801242
 H    3.474559685530   -0.583039105625   -0.195725024512
 H    2.898828567589   -2.115542473960   -0.601782463253
 C    0.032218146231    1.351504228700   -0.678899871672
 O    0.004637777126    2.579677313477   -0.682988000100
 C   -1.040566979745    0.377810839426   -0.672698673732
 N   -2.411640281514    0.564141884739   -0.672773858448
 C   -2.905163776025   -0.674461129306   -0.683103958113
 H   -3.962661689293   -0.928607751138   -0.686050602539
 H   -2.044551951773   -2.649455344402   -0.697805500938
NA    1.336191664135    0.649337754963    4.507929189405
