17

 N   -1.919682056521   -1.642790295162   -0.715563920100
 C   -0.709493989677   -0.987584091486   -0.711602296132
 N    0.523918424626   -1.586261785948   -0.699564011227
 C    1.494341624682   -0.696085644337   -0.711436468200
 N    1.291264787269    0.665552489177   -0.718271628542
 H    2.095091912520    1.285513028932   -0.800259650964
 N    2.819796378919   -1.114760366017   -0.789783771435
 H    3.474332584251   -0.582957141617   -0.222142994705
 H    2.898601466310   -2.115460509952   -0.628200433446
 C    0.031991044952    1.351586192708   -0.705317841865
 O    0.004410675847    2.579759277485   -0.709405970293
 C   -1.040794081024    0.377892803434   -0.699116643925
 N   -2.411867382793    0.564223848747   -0.699191828641
 C   -2.905390877304   -0.674379165298   -0.709521928306
 H   -3.962888790572   -0.928525787130   -0.712468572732
 H   -2.044779053052   -2.649373380394   -0.724223471131
NA    1.337683784993    0.648799227809    4.681502867201
