17

 N   -1.920136259081   -1.642626367146   -0.768399860488
 C   -0.709948192237   -0.987420163470   -0.764438236520
 N    0.523464222066   -1.586097857932   -0.752399951615
 C    1.493887422122   -0.695921716321   -0.764272408588
 N    1.290810584709    0.665716417193   -0.771107568930
 H    2.094637709960    1.285676956948   -0.853095591352
 N    2.819342176359   -1.114596438001   -0.842619711823
 H    3.473878381691   -0.582793213601   -0.274978935093
 H    2.898147263750   -2.115296581936   -0.681036373834
 C    0.031536842392    1.351750120724   -0.758153782253
 O    0.003956473287    2.579923205501   -0.762241910681
 C   -1.041248283584    0.378056731450   -0.751952584313
 N   -2.412321585353    0.564387776763   -0.752027769029
 C   -2.905845079864   -0.674215237282   -0.762357868694
 H   -3.963342993132   -0.928361859114   -0.765304513120
 H   -2.045233255612   -2.649209452378   -0.777059411519
NA    1.340668026710    0.647722173501    5.028650222795
