17

 N   -1.920249809721   -1.642585385142   -0.781608845585
 C   -0.710061742877   -0.987379181466   -0.777647221617
 N    0.523350671426   -1.586056875928   -0.765608936712
 C    1.493773871482   -0.695880734317   -0.777481393685
 N    1.290697034069    0.665757399197   -0.784316554027
 H    2.094524159320    1.285717938952   -0.866304576449
 N    2.819228625719   -1.114555455997   -0.855828696920
 H    3.473764831051   -0.582752231597   -0.288187920190
 H    2.898033713110   -2.115255599932   -0.694245358931
 C    0.031423291752    1.351791102728   -0.771362767350
 O    0.003842922647    2.579964187505   -0.775450895778
 C   -1.041361834224    0.378097713454   -0.765161569410
 N   -2.412435135993    0.564428758767   -0.765236754126
 C   -2.905958630504   -0.674174255278   -0.775566853791
 H   -3.963456543772   -0.928320877110   -0.778513498217
 H   -2.045346806252   -2.649168470374   -0.790268396616
NA    1.341414087139    0.647452909925    5.115437061693
