17

 N   -1.920704012280   -1.642421457127   -0.834444785973
 C   -0.710515945436   -0.987215253451   -0.830483162005
 N    0.522896468867   -1.585892947913   -0.818444877100
 C    1.493319668923   -0.695716806302   -0.830317334073
 N    1.290242831510    0.665921327212   -0.837152494415
 H    2.094069956761    1.285881866967   -0.919140516837
 N    2.818774423160   -1.114391527982   -0.908664637308
 H    3.473310628492   -0.582588303582   -0.341023860578
 H    2.897579510551   -2.115091671917   -0.747081299319
 C    0.030969089193    1.351955030743   -0.824198707738
 O    0.003388720088    2.580128115520   -0.828286836166
 C   -1.041816036783    0.378261641469   -0.817997509798
 N   -2.412889338552    0.564592686782   -0.818072694514
 C   -2.906412833063   -0.674010327263   -0.828402794179
 H   -3.963910746331   -0.928156949095   -0.831349438605
 H   -2.045801008811   -2.649004542359   -0.843104337004
NA    1.344398328855    0.646375855617    5.462584417286
