17

 N   -1.921044664200   -1.642298511115   -0.874071741264
 C   -0.710856597356   -0.987092307439   -0.870110117296
 N    0.522555816947   -1.585770001901   -0.858071832391
 C    1.492979017003   -0.695593860290   -0.869944289364
 N    1.289902179590    0.666044273224   -0.876779449706
 H    2.093729304841    1.286004812979   -0.958767472128
 N    2.818433771240   -1.114268581970   -0.948291592599
 H    3.472969976572   -0.582465357570   -0.380650815869
 H    2.897238858631   -2.114968725905   -0.786708254610
 C    0.030628437273    1.352077976755   -0.863825663029
 O    0.003048068168    2.580251061532   -0.867913791457
 C   -1.042156688703    0.378384587481   -0.857624465089
 N   -2.413229990472    0.564715632794   -0.857699649805
 C   -2.906753484983   -0.673887381251   -0.868029749470
 H   -3.964251398251   -0.928034003083   -0.870976393896
 H   -2.046141660731   -2.648881596347   -0.882731292295
NA    1.346636510143    0.645568064886    5.722944933981
