17

 N   -1.921158214840   -1.642257529111   -0.887280726360
 C   -0.710970147996   -0.987051325435   -0.883319102392
 N    0.522442266307   -1.585729019897   -0.871280817487
 C    1.492865466363   -0.695552878286   -0.883153274460
 N    1.289788628950    0.666085255228   -0.889988434802
 H    2.093615754201    1.286045794983   -0.971976457224
 N    2.818320220600   -1.114227599966   -0.961500577695
 H    3.472856425932   -0.582424375566   -0.393859800965
 H    2.897125307991   -2.114927743901   -0.799917239706
 C    0.030514886633    1.352118958759   -0.877034648125
 O    0.002934517528    2.580292043536   -0.881122776553
 C   -1.042270239343    0.378425569485   -0.870833450185
 N   -2.413343541112    0.564756614798   -0.870908634901
 C   -2.906867035623   -0.673846399247   -0.881238734566
 H   -3.964364948891   -0.927993021079   -0.884185378992
 H   -2.046255211371   -2.648840614343   -0.895940277391
NA    1.347382570572    0.645298801309    5.809731772879
