17

 N   -1.921498866759   -1.642134583099   -0.926907681651
 C   -0.711310799915   -0.986928379423   -0.922946057683
 N    0.522101614388   -1.585606073885   -0.910907772778
 C    1.492524814444   -0.695429932274   -0.922780229751
 N    1.289447977031    0.666208201240   -0.929615390093
 H    2.093275102282    1.286168740995   -1.011603412515
 N    2.817979568681   -1.114104653954   -1.001127532986
 H    3.472515774013   -0.582301429554   -0.433486756256
 H    2.896784656072   -2.114804797889   -0.839544194997
 C    0.030174234714    1.352241904771   -0.916661603416
 O    0.002593865609    2.580414989548   -0.920749731844
 C   -1.042610891262    0.378548515497   -0.910460405476
 N   -2.413684193031    0.564879560810   -0.910535590192
 C   -2.907207687542   -0.673723453235   -0.920865689857
 H   -3.964705600810   -0.927870075067   -0.923812334283
 H   -2.046595863290   -2.648717668331   -0.935567232682
NA    1.349620751859    0.644491010578    6.070092289574
