17

 N   -1.922293721239   -1.641847709071   -1.019370577330
 C   -0.712105654395   -0.986641505395   -1.015408953362
 N    0.521306759908   -1.585319199857   -1.003370668457
 C    1.491729959964   -0.695143058246   -1.015243125430
 N    1.288653122551    0.666495075268   -1.022078285772
 H    2.092480247802    1.286455615023   -1.104066308194
 N    2.817184714201   -1.113817779926   -1.093590428665
 H    3.471720919533   -0.582014555526   -0.525949651935
 H    2.895989801592   -2.114517923861   -0.932007090676
 C    0.029379380234    1.352528778799   -1.009124499095
 O    0.001799011129    2.580701863576   -1.013212627523
 C   -1.043405745742    0.378835389525   -1.002923301155
 N   -2.414479047511    0.565166434838   -1.002998485871
 C   -2.908002542022   -0.673436579207   -1.013328585536
 H   -3.965500455290   -0.927583201039   -1.016275229962
 H   -2.047390717770   -2.648430794303   -1.028030128361
NA    1.354843174863    0.642606165540    6.677600161863
