17

 N   -1.922520822518   -1.641765745063   -1.045788547524
 C   -0.712332755674   -0.986559541387   -1.041826923556
 N    0.521079658629   -1.585237235849   -1.029788638651
 C    1.491502858685   -0.695061094238   -1.041661095624
 N    1.288426021272    0.666577039276   -1.048496255966
 H    2.092253146523    1.286537579031   -1.130484278388
 N    2.816957612922   -1.113735815918   -1.120008398859
 H    3.471493818254   -0.581932591518   -0.552367622129
 H    2.895762700313   -2.114435959853   -0.958425060870
 C    0.029152278955    1.352610742807   -1.035542469289
 O    0.001571909850    2.580783827584   -1.039630597717
 C   -1.043632847021    0.378917353533   -1.029341271349
 N   -2.414706148790    0.565248398846   -1.029416456065
 C   -2.908229643301   -0.673354615199   -1.039746555730
 H   -3.965727556569   -0.927501237031   -1.042693200156
 H   -2.047617819049   -2.648348830295   -1.054448098555
NA    1.356335295721    0.642067638386    6.851173839659
