17

 N   -1.922861474438   -1.641642799052   -1.085415502814
 C   -0.712673407594   -0.986436595376   -1.081453878846
 N    0.520739006709   -1.585114289838   -1.069415593941
 C    1.491162206765   -0.694938148227   -1.081288050914
 N    1.288085369352    0.666699985287   -1.088123211256
 H    2.091912494603    1.286660525042   -1.170111233678
 N    2.816616961002   -1.113612869907   -1.159635354149
 H    3.471153166334   -0.581809645507   -0.591994577419
 H    2.895422048393   -2.114313013842   -0.998052016160
 C    0.028811627035    1.352733688818   -1.075169424579
 O    0.001231257930    2.580906773595   -1.079257553007
 C   -1.043973498941    0.379040299544   -1.068968226639
 N   -2.415046800710    0.565371344857   -1.069043411355
 C   -2.908570295221   -0.673231669188   -1.079373511020
 H   -3.966068208489   -0.927378291020   -1.082320155446
 H   -2.047958470969   -2.648225884284   -1.094075053845
NA    1.358573477008    0.641259847655    7.111534356354
