17

 N   -1.922975025078   -1.641601817048   -1.098624487911
 C   -0.712786958234   -0.986395613372   -1.094662863943
 N    0.520625456069   -1.585073307834   -1.082624579038
 C    1.491048656125   -0.694897166223   -1.094497036011
 N    1.287971818712    0.666740967291   -1.101332196353
 H    2.091798943963    1.286701507046   -1.183320218775
 N    2.816503410362   -1.113571887903   -1.172844339246
 H    3.471039615694   -0.581768663503   -0.605203562516
 H    2.895308497753   -2.114272031838   -1.011261001257
 C    0.028698076395    1.352774670822   -1.088378409676
 O    0.001117707290    2.580947755599   -1.092466538104
 C   -1.044087049581    0.379081281548   -1.082177211736
 N   -2.415160351350    0.565412326861   -1.082252396452
 C   -2.908683845861   -0.673190687184   -1.092582496117
 H   -3.966181759129   -0.927337309016   -1.095529140543
 H   -2.048072021609   -2.648184902280   -1.107284038942
NA    1.359319537437    0.640990584078    7.198321195253
