17

 N   -1.923088575718   -1.641560835044   -1.111833473008
 C   -0.712900508874   -0.986354631368   -1.107871849040
 N    0.520511905429   -1.585032325830   -1.095833564135
 C    1.490935105485   -0.694856184219   -1.107706021108
 N    1.287858268072    0.666781949295   -1.114541181450
 H    2.091685393323    1.286742489050   -1.196529203872
 N    2.816389859722   -1.113530905899   -1.186053324343
 H    3.470926065054   -0.581727681499   -0.618412547613
 H    2.895194947113   -2.114231049834   -1.024469986354
 C    0.028584525755    1.352815652826   -1.101587394773
 O    0.001004156650    2.580988737603   -1.105675523201
 C   -1.044200600221    0.379122263552   -1.095386196833
 N   -2.415273901990    0.565453308865   -1.095461381549
 C   -2.908797396501   -0.673149705180   -1.105791481214
 H   -3.966295309769   -0.927296327012   -1.108738125640
 H   -2.048185572249   -2.648143920276   -1.120493024039
NA    1.360065597866    0.640721320501    7.285108034151
