17

 N   -1.923315676997   -1.641478871036   -1.138251443202
 C   -0.713127610153   -0.986272667360   -1.134289819234
 N    0.520284804150   -1.584950361822   -1.122251534329
 C    1.490708004206   -0.694774220211   -1.134123991302
 N    1.287631166793    0.666863913303   -1.140959151644
 H    2.091458292044    1.286824453058   -1.222947174066
 N    2.816162758443   -1.113448941891   -1.212471294537
 H    3.470698963775   -0.581645717491   -0.644830517807
 H    2.894967845834   -2.114149085826   -1.050887956548
 C    0.028357424476    1.352897616834   -1.128005364967
 O    0.000777055371    2.581070701611   -1.132093493395
 C   -1.044427701500    0.379204227560   -1.121804167027
 N   -2.415501003269    0.565535272873   -1.121879351743
 C   -2.909024497780   -0.673067741172   -1.132209451408
 H   -3.966522411048   -0.927214363004   -1.135156095834
 H   -2.048412673528   -2.648061956268   -1.146910994233
NA    1.361557718725    0.640182793347    7.458681711948
