17

 N   -1.923429227637   -1.641437889032   -1.151460428299
 C   -0.713241160793   -0.986231685356   -1.147498804331
 N    0.520171253510   -1.584909379818   -1.135460519426
 C    1.490594453566   -0.694733238207   -1.147332976399
 N    1.287517616153    0.666904895307   -1.154168136741
 H    2.091344741404    1.286865435062   -1.236156159163
 N    2.816049207803   -1.113407959887   -1.225680279634
 H    3.470585413135   -0.581604735487   -0.658039502904
 H    2.894854295194   -2.114108103822   -1.064096941645
 C    0.028243873836    1.352938598838   -1.141214350064
 O    0.000663504731    2.581111683615   -1.145302478492
 C   -1.044541252140    0.379245209564   -1.135013152124
 N   -2.415614553909    0.565576254877   -1.135088336840
 C   -2.909138048420   -0.673026759168   -1.145418436505
 H   -3.966635961688   -0.927173381000   -1.148365080931
 H   -2.048526224168   -2.648020974264   -1.160119979330
NA    1.362303779154    0.639913529771    7.545468550846
