17

 N   -1.924110531477   -1.641191997008   -1.230714338881
 C   -0.713922464633   -0.985985793332   -1.226752714913
 N    0.519489949670   -1.584663487794   -1.214714430008
 C    1.489913149726   -0.694487346183   -1.226586886981
 N    1.286836312313    0.667150787331   -1.233422047323
 H    2.090663437564    1.287111327086   -1.315410069745
 N    2.815367903963   -1.113162067863   -1.304934190216
 H    3.469904109295   -0.581358843463   -0.737293413486
 H    2.894172991354   -2.113862211798   -1.143350852227
 C    0.027562569996    1.353184490862   -1.220468260646
 O   -0.000017799109    2.581357575639   -1.224556389074
 C   -1.045222555980    0.379491101588   -1.214267062706
 N   -2.416295857749    0.565822146901   -1.214342247422
 C   -2.909819352260   -0.672780867144   -1.224672347087
 H   -3.967317265528   -0.926927488976   -1.227618991513
 H   -2.049207528008   -2.647775082240   -1.239373889912
NA    1.366780141728    0.638297948309    8.066189584236
