17

 N   -1.924224082116   -1.641151015004   -1.243923323978
 C   -0.714036015272   -0.985944811328   -1.239961700010
 N    0.519376399031   -1.584622505790   -1.227923415105
 C    1.489799599087   -0.694446364179   -1.239795872078
 N    1.286722761674    0.667191769335   -1.246631032420
 H    2.090549886925    1.287152309090   -1.328619054842
 N    2.815254353324   -1.113121085859   -1.318143175313
 H    3.469790558656   -0.581317861459   -0.750502398583
 H    2.894059440715   -2.113821229794   -1.156559837324
 C    0.027449019357    1.353225472866   -1.233677245743
 O   -0.000131349748    2.581398557643   -1.237765374171
 C   -1.045336106619    0.379532083592   -1.227476047803
 N   -2.416409408388    0.565863128905   -1.227551232519
 C   -2.909932902899   -0.672739885140   -1.237881332184
 H   -3.967430816167   -0.926886506972   -1.240827976610
 H   -2.049321078647   -2.647734100236   -1.252582875009
NA    1.367526202158    0.638028684732    8.152976423134
