16

 N   -2.288591739728    0.208877275632   -0.013275126464
 C   -1.056466007461   -0.421413004376   -0.012320166156
 N   -0.786325071335   -1.742298479344   -0.015784355103
 C    0.541804097128   -1.960492372094   -0.000216926440
 H    0.855612380098   -3.007171104584    0.003162644251
 N    1.554153540169   -1.052511414953    0.013754343835
 C    1.241936796262    0.258309668296    0.009107939935
 N    2.249563751064    1.182808305601   -0.032713896996
 H    3.181015288451    0.852278196849    0.189744037137
 H    2.016826245037    2.142779060640    0.192096348444
 C   -0.123564044612    0.635003522163    0.000336852220
 N   -0.747093355803    1.873969222793    0.010215061238
 C   -2.047018842960    1.565889834432    0.001760208080
 H   -2.857072371747    2.292470635534    0.005808345943
 H   -3.192381416898   -0.251379848202   -0.020878182397
LI    2.504534275633   -1.363411767570    0.024590782466
