16

 N   -2.307365164389    0.215018671526   -0.013489184953
 C   -1.075239432122   -0.415271608482   -0.012534224645
 N   -0.805098495996   -1.736157083450   -0.015998413592
 C    0.523030672467   -1.954350976200   -0.000430984929
 H    0.836838955437   -3.001029708690    0.002948585762
 N    1.535380115508   -1.046370019059    0.013540285346
 C    1.223163371601    0.264451064190    0.008893881446
 N    2.230790326403    1.188949701495   -0.032927955485
 H    3.162241863790    0.858419592743    0.189529978648
 H    1.998052820376    2.148920456534    0.191882289955
 C   -0.142337469273    0.641144918057    0.000122793731
 N   -0.765866780464    1.880110618687    0.010001002749
 C   -2.065792267621    1.572031230326    0.001546149591
 H   -2.875845796408    2.298612031428    0.005594287454
 H   -3.211154841559   -0.245238452308   -0.021092240886
LI    2.865913145157   -1.481630512722    0.028711299429
