16

 N   -2.316751876720    0.218089369474   -0.013596214198
 C   -1.084626144453   -0.412200910534   -0.012641253890
 N   -0.814485208327   -1.733086385502   -0.016105442837
 C    0.513643960136   -1.951280278252   -0.000538014174
 H    0.827452243106   -2.997959010742    0.002841556517
 N    1.525993403177   -1.043299321111    0.013433256101
 C    1.213776659270    0.267521762138    0.008786852201
 N    2.221403614072    1.192020399443   -0.033034984730
 H    3.152855151459    0.861490290691    0.189422949403
 H    1.988666108045    2.151991154482    0.191775260710
 C   -0.151724181604    0.644215616005    0.000015764486
 N   -0.775253492795    1.883181316635    0.009893973504
 C   -2.075178979952    1.575101928274    0.001439120346
 H   -2.885232508739    2.301682729376    0.005487258209
 H   -3.220541553890   -0.242167754360   -0.021199270131
LI    3.046602579919   -1.540739885298    0.030771557911
