16

 N   -2.344912013712    0.227301463315   -0.013917301931
 C   -1.112786281445   -0.402988816693   -0.012962341623
 N   -0.842645345319   -1.723874291661   -0.016426530570
 C    0.485483823144   -1.942068184411   -0.000859101907
 H    0.799292106114   -2.988746916901    0.002520468784
 N    1.497833266185   -1.034087227270    0.013112168368
 C    1.185616522278    0.276733855979    0.008465764468
 N    2.193243477080    1.201232493284   -0.033356072463
 H    3.124695014467    0.870702384532    0.189101861670
 H    1.960505971053    2.161203248323    0.191454172977
 C   -0.179884318596    0.653427709846   -0.000305323247
 N   -0.803413629787    1.892393410476    0.009572885771
 C   -2.103339116944    1.584314022115    0.001118032613
 H   -2.913392645731    2.310894823217    0.005166170476
 H   -3.248701690882   -0.232955660519   -0.021520357864
LI    3.588670884205   -1.718068003026    0.036952333356
