16

 N   -2.358992082208    0.231907510236   -0.014077845798
 C   -1.126866349941   -0.398382769772   -0.013122885490
 N   -0.856725413815   -1.719268244740   -0.016587074437
 C    0.471403754648   -1.937462137490   -0.001019645774
 H    0.785212037618   -2.984140869980    0.002359924917
 N    1.483753197689   -1.029481180349    0.012951624501
 C    1.171536453782    0.281339902900    0.008305220601
 N    2.179163408584    1.205838540205   -0.033516616330
 H    3.110614945971    0.875308431453    0.188941317803
 H    1.946425902557    2.165809295244    0.191293629110
 C   -0.193964387092    0.658033756767   -0.000465867114
 N   -0.817493698283    1.896999457397    0.009412341904
 C   -2.117419185440    1.588920069036    0.000957488746
 H   -2.927472714227    2.315500870138    0.005005626609
 H   -3.262781759378   -0.228349613598   -0.021680901731
LI    3.859705036349   -1.806732061890    0.040042721079
