16

 N   -2.368378794539    0.234978208184   -0.014184875043
 C   -1.136253062272   -0.395312071824   -0.013229914735
 N   -0.866112126146   -1.716197546792   -0.016694103682
 C    0.462017042317   -1.934391439542   -0.001126675019
 H    0.775825325287   -2.981070172032    0.002252895672
 N    1.474366485358   -1.026410482401    0.012844595256
 C    1.162149741451    0.284410600848    0.008198191356
 N    2.169776696253    1.208909238153   -0.033623645575
 H    3.101228233640    0.878379129401    0.188834288558
 H    1.937039190226    2.168879993192    0.191186599865
 C   -0.203351099423    0.661104454715   -0.000572896359
 N   -0.826880410614    1.900070155345    0.009305312659
 C   -2.126805897771    1.591990766984    0.000850459501
 H   -2.936859426558    2.318571568086    0.004898597364
 H   -3.272168471709   -0.225278915650   -0.021787930976
LI    4.040394471111   -1.865841434466    0.042102979560
