16

 N   -2.377765506869    0.238048906131   -0.014291904287
 C   -1.145639774602   -0.392241373877   -0.013336943979
 N   -0.875498838476   -1.713126848845   -0.016801132926
 C    0.452630329987   -1.931320741595   -0.001233704263
 H    0.766438612957   -2.977999474085    0.002145866428
 N    1.464979773028   -1.023339784454    0.012737566012
 C    1.152763029121    0.287481298795    0.008091162112
 N    2.160389983923    1.211979936100   -0.033730674819
 H    3.091841521310    0.881449827348    0.188727259314
 H    1.927652477896    2.171950691139    0.191079570621
 C   -0.212737811753    0.664175152662   -0.000679925603
 N   -0.836267122944    1.903140853292    0.009198283415
 C   -2.136192610101    1.595061464931    0.000743430257
 H   -2.946246138888    2.321642266033    0.004791568120
 H   -3.281555184039   -0.222208217703   -0.021894960220
LI    4.221083905873   -1.924950807042    0.044163238042
