16

 N   -2.387152219200    0.241119604078   -0.014398933532
 C   -1.155026486933   -0.389170675930   -0.013443973224
 N   -0.884885550807   -1.710056150898   -0.016908162171
 C    0.443243617656   -1.928250043648   -0.001340733508
 H    0.757051900626   -2.974928776138    0.002038837183
 N    1.455593060697   -1.020269086507    0.012630536767
 C    1.143376316790    0.290551996742    0.007984132867
 N    2.151003271592    1.215050634047   -0.033837704064
 H    3.082454808979    0.884520525295    0.188620230069
 H    1.918265765565    2.175021389086    0.190972541376
 C   -0.222124524084    0.667245850609   -0.000786954848
 N   -0.845653835275    1.906211551239    0.009091254170
 C   -2.145579322432    1.598132162878    0.000636401012
 H   -2.955632851219    2.324712963980    0.004684538875
 H   -3.290941896370   -0.219137519756   -0.022001989465
LI    4.401773340635   -1.984060179618    0.046223496524
