16

 N   -2.396538931531    0.244190302025   -0.014505962776
 C   -1.164413199264   -0.386099977983   -0.013551002468
 N   -0.894272263138   -1.706985452951   -0.017015191415
 C    0.433856905325   -1.925179345701   -0.001447762752
 H    0.747665188295   -2.971858078191    0.001931807939
 N    1.446206348366   -1.017198388560    0.012523507523
 C    1.133989604459    0.293622694689    0.007877103623
 N    2.141616559261    1.218121331994   -0.033944733308
 H    3.073068096648    0.887591223242    0.188513200825
 H    1.908879053234    2.178092087033    0.190865512132
 C   -0.231511236415    0.670316548556   -0.000893984092
 N   -0.855040547606    1.909282249186    0.008984224926
 C   -2.154966034763    1.601202860825    0.000529371768
 H   -2.965019563550    2.327783661927    0.004577509631
 H   -3.300328608701   -0.216066821809   -0.022109018709
LI    4.582462775397   -2.043169552194    0.048283755006
