16

 N   -2.401232287696    0.245725650999   -0.014559477399
 C   -1.169106555429   -0.384564629009   -0.013604517091
 N   -0.898965619303   -1.705450103977   -0.017068706038
 C    0.429163549160   -1.923643996727   -0.001501277375
 H    0.742971832130   -2.970322729217    0.001878293316
 N    1.441512992201   -1.015663039586    0.012469992900
 C    1.129296248294    0.295158043663    0.007823589000
 N    2.136923203096    1.219656680968   -0.033998247931
 H    3.068374740483    0.889126572216    0.188459686202
 H    1.904185697069    2.179627436007    0.190811997509
 C   -0.236204592580    0.671851897530   -0.000947498715
 N   -0.859733903771    1.910817598160    0.008930710303
 C   -2.159659390928    1.602738209799    0.000475857145
 H   -2.969712919715    2.329319010901    0.004523995008
 H   -3.305021964866   -0.214531472835   -0.022162533332
LI    4.672807492778   -2.072724238482    0.049313884246
