16

 N   -2.405925643861    0.247260999973   -0.014612992021
 C   -1.173799911594   -0.383029280035   -0.013658031713
 N   -0.903658975468   -1.703914755003   -0.017122220660
 C    0.424470192995   -1.922108647753   -0.001554791997
 H    0.738278475965   -2.968787380243    0.001824778694
 N    1.436819636036   -1.014127690612    0.012416478278
 C    1.124602892129    0.296693392637    0.007770074378
 N    2.132229846931    1.221192029942   -0.034051762553
 H    3.063681384318    0.890661921190    0.188406171580
 H    1.899492340904    2.181162784981    0.190758482887
 C   -0.240897948745    0.673387246504   -0.001001013337
 N   -0.864427259936    1.912352947134    0.008877195681
 C   -2.164352747093    1.604273558773    0.000422342523
 H   -2.974406275880    2.330854359875    0.004470480386
 H   -3.309715321031   -0.212996123861   -0.022216047954
LI    4.763152210159   -2.102278924770    0.050344013487
