16

 N   -2.420005712357    0.251867046894   -0.014773535888
 C   -1.187879980090   -0.378423233114   -0.013818575580
 N   -0.917739043964   -1.699308708082   -0.017282764527
 C    0.410390124499   -1.917502600832   -0.001715335864
 H    0.724198407469   -2.964181333322    0.001664234827
 N    1.422739567540   -1.009521643691    0.012255934411
 C    1.110522823633    0.301299439558    0.007609530511
 N    2.118149778435    1.225798076863   -0.034212306420
 H    3.049601315822    0.895267968111    0.188245627713
 H    1.885412272408    2.185768831902    0.190597939020
 C   -0.254978017241    0.677993293425   -0.001161557204
 N   -0.878507328432    1.916958994055    0.008716651814
 C   -2.178432815589    1.608879605694    0.000261798656
 H   -2.988486344376    2.335460406796    0.004309936519
 H   -3.323795389527   -0.208390076940   -0.022376591821
LI    5.034186362302   -2.190942983634    0.053434401210
