16

 N   -2.429392424688    0.254937744841   -0.014880565132
 C   -1.197266692421   -0.375352535167   -0.013925604824
 N   -0.927125756295   -1.696238010135   -0.017389793771
 C    0.401003412168   -1.914431902885   -0.001822365108
 H    0.714811695138   -2.961110635375    0.001557205583
 N    1.413352855209   -1.006450945744    0.012148905167
 C    1.101136111302    0.304370137505    0.007502501267
 N    2.108763066104    1.228868774810   -0.034319335664
 H    3.040214603491    0.898338666058    0.188138598469
 H    1.876025560077    2.188839529849    0.190490909776
 C   -0.264364729572    0.681063991372   -0.001268586448
 N   -0.887894040763    1.920029692002    0.008609622570
 C   -2.187819527920    1.611950303641    0.000154769412
 H   -2.997873056707    2.338531104743    0.004202907275
 H   -3.333182101858   -0.205319378993   -0.022483621065
LI    5.214875797064   -2.250052356210    0.055494659692
