16

 N   -2.438779137019    0.258008442788   -0.014987594377
 C   -1.206653404752   -0.372281837220   -0.014032634069
 N   -0.936512468626   -1.693167312188   -0.017496823016
 C    0.391616699837   -1.911361204938   -0.001929394353
 H    0.705424982807   -2.958039937428    0.001450176338
 N    1.403966142878   -1.003380247797    0.012041875922
 C    1.091749398971    0.307440835452    0.007395472022
 N    2.099376353773    1.231939472757   -0.034426364909
 H    3.030827891160    0.901409364005    0.188031569224
 H    1.866638847746    2.191910227796    0.190383880531
 C   -0.273751441903    0.684134689319   -0.001375615693
 N   -0.897280753094    1.923100389949    0.008502593325
 C   -2.197206240251    1.615021001588    0.000047740167
 H   -3.007259769038    2.341601802690    0.004095878030
 H   -3.342568814189   -0.202248681046   -0.022590650310
LI    5.395565231826   -2.309161728786    0.057554918173
