16

 N   -2.462245917845    0.265685187656   -0.015255167488
 C   -1.230120185578   -0.364605092352   -0.014300207180
 N   -0.959979249452   -1.685490567320   -0.017764396127
 C    0.368149919011   -1.903684460070   -0.002196967464
 H    0.681958201981   -2.950363192560    0.001182603227
 N    1.380499362052   -0.995703502929    0.011774302811
 C    1.068282618145    0.315117580320    0.007127898911
 N    2.075909572947    1.239616217625   -0.034693938020
 H    3.007361110334    0.909086108873    0.187763996113
 H    1.843172066920    2.199586972664    0.190116307420
 C   -0.297218222729    0.691811434187   -0.001643188804
 N   -0.920747533920    1.930777134817    0.008235020214
 C   -2.220673021077    1.622697746456   -0.000219832944
 H   -3.030726549864    2.349278547558    0.003828304919
 H   -3.366035595015   -0.194571936178   -0.022858223421
LI    5.847288818732   -2.456935160226    0.062705564378
