16

 N   -2.466939274011    0.267220536630   -0.015308682110
 C   -1.234813541744   -0.363069743378   -0.014353721802
 N   -0.964672605618   -1.683955218346   -0.017817910749
 C    0.363456562845   -1.902149111096   -0.002250482086
 H    0.677264845815   -2.948827843586    0.001129088605
 N    1.375806005886   -0.994168153955    0.011720788189
 C    1.063589261979    0.316652929294    0.007074384289
 N    2.071216216781    1.241151566599   -0.034747452642
 H    3.002667754168    0.910621457847    0.187710481491
 H    1.838478710754    2.201122321638    0.190062792798
 C   -0.301911578895    0.693346783161   -0.001696703426
 N   -0.925440890086    1.932312483791    0.008181505592
 C   -2.225366377243    1.624233095430   -0.000273347566
 H   -3.035419906030    2.350813896532    0.003774790297
 H   -3.370728951181   -0.193036587204   -0.022911738043
LI    5.937633536113   -2.486489846514    0.063735693619
