16

 N   -2.471632630176    0.268755885604   -0.015362196732
 C   -1.239506897909   -0.361534394404   -0.014407236424
 N   -0.969365961783   -1.682419869372   -0.017871425371
 C    0.358763206680   -1.900613762122   -0.002303996708
 H    0.672571489650   -2.947292494612    0.001075573983
 N    1.371112649721   -0.992632804981    0.011667273567
 C    1.058895905814    0.318188278268    0.007020869667
 N    2.066522860616    1.242686915573   -0.034800967264
 H    2.997974398003    0.912156806821    0.187656966869
 H    1.833785354589    2.202657670612    0.190009278176
 C   -0.306604935060    0.694882132135   -0.001750218048
 N   -0.930134246251    1.933847832765    0.008127990970
 C   -2.230059733408    1.625768444404   -0.000326862188
 H   -3.040113262195    2.352349245506    0.003721275675
 H   -3.375422307346   -0.191501238230   -0.022965252665
LI    6.027978253494   -2.516044532802    0.064765822859
