16

 N   -2.476325986341    0.270291234577   -0.015415711355
 C   -1.244200254074   -0.359999045431   -0.014460751047
 N   -0.974059317948   -1.680884520399   -0.017924939994
 C    0.354069850515   -1.899078413149   -0.002357511331
 H    0.667878133485   -2.945757145639    0.001022059360
 N    1.366419293556   -0.991097456008    0.011613758944
 C    1.054202549649    0.319723627241    0.006967355044
 N    2.061829504451    1.244222264546   -0.034854481887
 H    2.993281041838    0.913692155794    0.187603452246
 H    1.829091998424    2.204193019585    0.189955763553
 C   -0.311298291225    0.696417481108   -0.001803732671
 N   -0.934827602416    1.935383181738    0.008074476347
 C   -2.234753089573    1.627303793377   -0.000380376811
 H   -3.044806618360    2.353884594479    0.003667761052
 H   -3.380115663511   -0.189965889257   -0.023018767288
LI    6.118322970875   -2.545599219090    0.065795952100
