16

 N   -2.485712698672    0.273361932525   -0.015522740599
 C   -1.253586966405   -0.356928347483   -0.014567780291
 N   -0.983446030279   -1.677813822451   -0.018031969238
 C    0.344683138184   -1.896007715201   -0.002464540575
 H    0.658491421154   -2.942686447691    0.000915030116
 N    1.357032581225   -0.988026758060    0.011506729700
 C    1.044815837318    0.322794325189    0.006860325800
 N    2.052442792120    1.247292962494   -0.034961511131
 H    2.983894329507    0.916762853742    0.187496423002
 H    1.819705286093    2.207263717533    0.189848734309
 C   -0.320685003556    0.699488179056   -0.001910761915
 N   -0.944214314747    1.938453879686    0.007967447103
 C   -2.244139801904    1.630374491325   -0.000487406055
 H   -3.054193330691    2.356955292427    0.003560731808
 H   -3.389502375842   -0.186895191309   -0.023125796532
LI    6.299012405637   -2.604708591666    0.067856210582
