16

 N   -2.509179479499    0.281038677393   -0.015790313711
 C   -1.277053747232   -0.349251602615   -0.014835353403
 N   -1.006912811106   -1.670137077583   -0.018299542350
 C    0.321216357357   -1.888330970333   -0.002732113687
 H    0.635024640327   -2.935009702823    0.000647457004
 N    1.333565800398   -0.980350013192    0.011239156588
 C    1.021349056491    0.330471070057    0.006592752688
 N    2.028976011293    1.254969707362   -0.035229084243
 H    2.960427548680    0.924439598610    0.187228849890
 H    1.796238505266    2.214940462401    0.189581161197
 C   -0.344151784383    0.707164923924   -0.002178335027
 N   -0.967681095574    1.946130624554    0.007699873991
 C   -2.267606582731    1.638051236193   -0.000754979167
 H   -3.077660111518    2.364632037295    0.003293158696
 H   -3.412969156669   -0.179218446441   -0.023393369644
LI    6.750735992542   -2.752482023106    0.073006856786
