16

 N   -2.537339616491    0.290250771234   -0.016111401444
 C   -1.305213884224   -0.340039508774   -0.015156441136
 N   -1.035072948098   -1.660924983742   -0.018620630083
 C    0.293056220365   -1.879118876492   -0.003053201420
 H    0.606864503335   -2.925797608982    0.000326369271
 N    1.305405663406   -0.971137919351    0.010918068855
 C    0.993188919499    0.339683163898    0.006271664955
 N    2.000815874301    1.264181801203   -0.035550171976
 H    2.932267411688    0.933651692451    0.186907762157
 H    1.768078368274    2.224152556242    0.189260073464
 C   -0.372311921375    0.716377017765   -0.002499422760
 N   -0.995841232566    1.955342718395    0.007378786258
 C   -2.295766719723    1.647263330034   -0.001076066900
 H   -3.105820248510    2.373844131136    0.002972070963
 H   -3.441129293661   -0.170006352600   -0.023714457377
LI    7.292804296829   -2.929810140834    0.079187632231
