16

 N   -2.546726328821    0.293321469182   -0.016218430689
 C   -1.314600596554   -0.336968810826   -0.015263470381
 N   -1.044459660428   -1.657854285794   -0.018727659328
 C    0.283669508035   -1.876048178544   -0.003160230665
 H    0.597477791005   -2.922726911034    0.000219340026
 N    1.296018951076   -0.968067221403    0.010811039610
 C    0.983802207169    0.342753861846    0.006164635710
 N    1.991429161971    1.267252499151   -0.035657201221
 H    2.922880699358    0.936722390399    0.186800732912
 H    1.758691655944    2.227223254190    0.189153044219
 C   -0.381698633705    0.719447715713   -0.002606452005
 N   -1.005227944896    1.958413416343    0.007271757013
 C   -2.305153432053    1.650334027982   -0.001183096145
 H   -3.115206960840    2.376914829084    0.002865041718
 H   -3.450516005991   -0.166935654652   -0.023821486622
LI    7.473493731591   -2.988919513410    0.081247890713
