16

 N   -2.551419684987    0.294856818155   -0.016271945311
 C   -1.319293952720   -0.335433461853   -0.015316985003
 N   -1.049153016594   -1.656318936821   -0.018781173950
 C    0.278976151869   -1.874512829571   -0.003213745287
 H    0.592784434839   -2.921191562061    0.000165825404
 N    1.291325594910   -0.966531872430    0.010757524988
 C    0.979108851003    0.344289210819    0.006111121088
 N    1.986735805805    1.268787848124   -0.035710715843
 H    2.918187343192    0.938257739372    0.186747218290
 H    1.753998299778    2.228758603163    0.189099529597
 C   -0.386391989871    0.720983064686   -0.002659966627
 N   -1.009921301062    1.959948765316    0.007218242391
 C   -2.309846788219    1.651869376955   -0.001236610767
 H   -3.119900317006    2.378450178057    0.002811527096
 H   -3.455209362157   -0.165400305679   -0.023875001244
LI    7.563838448972   -3.018474199698    0.082278019954
