16

 N   -2.556113041152    0.296392167129   -0.016325459933
 C   -1.323987308885   -0.333898112879   -0.015370499625
 N   -1.053846372759   -1.654783587847   -0.018834688572
 C    0.274282795704   -1.872977480597   -0.003267259909
 H    0.588091078674   -2.919656213087    0.000112310782
 N    1.286632238745   -0.964996523456    0.010704010366
 C    0.974415494838    0.345824559793    0.006057606466
 N    1.982042449640    1.270323197098   -0.035764230465
 H    2.913493987027    0.939793088346    0.186693703668
 H    1.749304943613    2.230293952137    0.189046014975
 C   -0.391085346036    0.722518413660   -0.002713481249
 N   -1.014614657227    1.961484114290    0.007164727769
 C   -2.314540144384    1.653404725929   -0.001290125389
 H   -3.124593673171    2.379985527031    0.002758012474
 H   -3.459902718322   -0.163864956705   -0.023928515866
LI    7.654183166353   -3.048028885986    0.083308149195
