16

 N   -2.565499753483    0.299462865076   -0.016432489178
 C   -1.333374021216   -0.330827414932   -0.015477528870
 N   -1.063233085090   -1.651712889900   -0.018941717817
 C    0.264896083373   -1.869906782650   -0.003374289154
 H    0.578704366343   -2.916585515140    0.000005281537
 N    1.277245526414   -0.961925825509    0.010596981121
 C    0.965028782507    0.348895257740    0.005950577221
 N    1.972655737309    1.273393895045   -0.035871259710
 H    2.904107274696    0.942863786293    0.186586674423
 H    1.739918231282    2.233364650084    0.188938985730
 C   -0.400472058367    0.725589111607   -0.002820510494
 N   -1.024001369558    1.964554812237    0.007057698524
 C   -2.323926856715    1.656475423876   -0.001397154634
 H   -3.133980385502    2.383056224978    0.002650983229
 H   -3.469289430653   -0.160794258758   -0.024035545111
LI    7.834872601115   -3.107138258562    0.085368407677
