16

 N   -2.574886465813    0.302533563024   -0.016539518422
 C   -1.342760733546   -0.327756716984   -0.015584558114
 N   -1.072619797420   -1.648642191952   -0.019048747061
 C    0.255509371043   -1.866836084702   -0.003481318398
 H    0.569317654013   -2.913514817192   -0.000101747707
 N    1.267858814084   -0.958855127561    0.010489951877
 C    0.955642070177    0.351965955688    0.005843547977
 N    1.963269024979    1.276464592993   -0.035978288954
 H    2.894720562366    0.945934484241    0.186479645179
 H    1.730531518952    2.236435348032    0.188831956486
 C   -0.409858770697    0.728659809555   -0.002927539738
 N   -1.033388081888    1.967625510185    0.006950669280
 C   -2.333313569045    1.659546121824   -0.001504183878
 H   -3.143367097832    2.386126922926    0.002543953985
 H   -3.478676142983   -0.157723560810   -0.024142574355
LI    8.015562035877   -3.166247631138    0.087428666158
