16

 N   -2.579579821979    0.304068911997   -0.016593033044
 C   -1.347454089712   -0.326221368011   -0.015638072736
 N   -1.077313153586   -1.647106842979   -0.019102261683
 C    0.250816014877   -1.865300735729   -0.003534833020
 H    0.564624297847   -2.911979468219   -0.000155262329
 N    1.263165457918   -0.957319778588    0.010436437255
 C    0.950948714011    0.353501304661    0.005790033355
 N    1.958575668813    1.277999941966   -0.036031803576
 H    2.890027206200    0.947469833214    0.186426130557
 H    1.725838162786    2.237970697005    0.188778441864
 C   -0.414552126863    0.730195158528   -0.002981054360
 N   -1.038081438054    1.969160859158    0.006897154658
 C   -2.338006925211    1.661081470797   -0.001557698500
 H   -3.148060453998    2.387662271899    0.002490439363
 H   -3.483369499149   -0.156188211837   -0.024196088977
LI    8.105906753258   -3.195802317426    0.088458795399
