16

 N   -2.588966534309    0.307139609944   -0.016700062289
 C   -1.356840802042   -0.323150670064   -0.015745101981
 N   -1.086699865916   -1.644036145032   -0.019209290928
 C    0.241429302547   -1.862230037782   -0.003641862265
 H    0.555237585517   -2.908908770272   -0.000262291574
 N    1.253778745588   -0.954249080641    0.010329408010
 C    0.941562001681    0.356572002608    0.005683004110
 N    1.949188956483    1.281070639913   -0.036138832821
 H    2.880640493870    0.950540531161    0.186319101312
 H    1.716451450456    2.241041394952    0.188671412619
 C   -0.423938839193    0.733265856475   -0.003088083605
 N   -1.047468150384    1.972231557105    0.006790125413
 C   -2.347393637541    1.664152168744   -0.001664727745
 H   -3.157447166328    2.390732969846    0.002383410118
 H   -3.492756211479   -0.153117513890   -0.024303118222
LI    8.286596188020   -3.254911690002    0.090519053881
