16

 N   -2.603046602805    0.311745656865   -0.016860606156
 C   -1.370920870538   -0.318544623143   -0.015905645848
 N   -1.100779934412   -1.639430098111   -0.019369834795
 C    0.227349234051   -1.857623990861   -0.003802406132
 H    0.541157517021   -2.904302723351   -0.000422835441
 N    1.239698677092   -0.949643033720    0.010168864143
 C    0.927481933185    0.361178049529    0.005522460243
 N    1.935108887987    1.285676686834   -0.036299376688
 H    2.866560425374    0.955146578082    0.186158557445
 H    1.702371381960    2.245647441873    0.188510868752
 C   -0.438018907689    0.737871903396   -0.003248627472
 N   -1.061548218880    1.976837604026    0.006629581546
 C   -2.361473706037    1.668758215665   -0.001825271612
 H   -3.171527234824    2.395339016767    0.002222866251
 H   -3.506836279975   -0.148511466969   -0.024463662089
LI    8.557630340163   -3.343575748866    0.093609441604
