16

 N   -2.612433315136    0.314816354813   -0.016967635400
 C   -1.380307582869   -0.315473925195   -0.016012675092
 N   -1.110166646743   -1.636359400163   -0.019476864039
 C    0.217962521720   -1.854553292913   -0.003909435376
 H    0.531770804690   -2.901232025403   -0.000529864685
 N    1.230311964761   -0.946572335772    0.010061834899
 C    0.918095220854    0.364248747477    0.005415430999
 N    1.925722175656    1.288747384782   -0.036406405932
 H    2.857173713043    0.958217276030    0.186051528201
 H    1.692984669629    2.248718139821    0.188403839508
 C   -0.447405620020    0.740942601344   -0.003355656716
 N   -1.070934931211    1.979908301974    0.006522552302
 C   -2.370860418368    1.671828913613   -0.001932300856
 H   -3.180913947155    2.398409714715    0.002115837007
 H   -3.516222992306   -0.145440769021   -0.024570691333
LI    8.738319774925   -3.402685121442    0.095669700085
