16

 N   -2.626513383632    0.319422401734   -0.017128179267
 C   -1.394387651365   -0.310867878274   -0.016173218959
 N   -1.124246715239   -1.631753353242   -0.019637407906
 C    0.203882453224   -1.849947245992   -0.004069979243
 H    0.517690736194   -2.896625978482   -0.000690408552
 N    1.216231896265   -0.941966288851    0.009901291032
 C    0.904015152358    0.368854794398    0.005254887132
 N    1.911642107160    1.293353431703   -0.036566949799
 H    2.843093644547    0.962823322951    0.185890984334
 H    1.678904601133    2.253324186742    0.188243295641
 C   -0.461485688516    0.745548648265   -0.003516200583
 N   -1.085014999707    1.984514348895    0.006362008435
 C   -2.384940486864    1.676434960534   -0.002092844723
 H   -3.194994015651    2.403015761636    0.001955293140
 H   -3.530303060802   -0.140834722100   -0.024731235200
LI    9.009353927069   -3.491349180306    0.098760087808
