16

 N   -2.635900095963    0.322493099681   -0.017235208512
 C   -1.403774363696   -0.307797180327   -0.016280248204
 N   -1.133633427570   -1.628682655295   -0.019744437151
 C    0.194495740893   -1.846876548045   -0.004177008488
 H    0.508304023863   -2.893555280535   -0.000797437797
 N    1.206845183934   -0.938895590904    0.009794261787
 C    0.894628440027    0.371925492345    0.005147857887
 N    1.902255394829    1.296424129650   -0.036673979044
 H    2.833706932216    0.965894020898    0.185783955089
 H    1.669517888802    2.256394884689    0.188136266396
 C   -0.470872400847    0.748619346212   -0.003623229828
 N   -1.094401712038    1.987585046842    0.006254979190
 C   -2.394327199195    1.679505658481   -0.002199873968
 H   -3.204380727982    2.406086459583    0.001848263895
 H   -3.539689773133   -0.137764024153   -0.024838264445
LI    9.190043361831   -3.550458552882    0.100820346290
