16

 N   -2.659366876789    0.330169844549   -0.017502781623
 C   -1.427241144522   -0.300120435459   -0.016547821315
 N   -1.157100208396   -1.621005910427   -0.020012010262
 C    0.171028960067   -1.839199803177   -0.004444581599
 H    0.484837243037   -2.885878535667   -0.001065010908
 N    1.183378403108   -0.931218846036    0.009526688676
 C    0.871161659201    0.379602237213    0.004880284776
 N    1.878788614003    1.304100874518   -0.036941552155
 H    2.810240151390    0.973570765766    0.185516381978
 H    1.646051107976    2.264071629557    0.187868693285
 C   -0.494339181673    0.756296091080   -0.003890802939
 N   -1.117868492864    1.995261791710    0.005987406079
 C   -2.417793980021    1.687182403349   -0.002467447079
 H   -3.227847508808    2.413763204451    0.001580690784
 H   -3.563156553959   -0.130087279285   -0.025105837556
LI    9.641766948736   -3.698231984322    0.105970992494
