16

 N   -2.668753589120    0.333240542496   -0.017609810867
 C   -1.436627856853   -0.297049737512   -0.016654850559
 N   -1.166486920727   -1.617935212480   -0.020119039506
 C    0.161642247736   -1.836129105230   -0.004551610843
 H    0.475450530706   -2.882807837720   -0.001172040152
 N    1.173991690777   -0.928148148089    0.009419659432
 C    0.861774946870    0.382672935160    0.004773255532
 N    1.869401901672    1.307171572465   -0.037048581399
 H    2.800853439059    0.976641463713    0.185409352734
 H    1.636664395645    2.267142327504    0.187761664041
 C   -0.503725894004    0.759366789027   -0.003997832183
 N   -1.127255205195    1.998332489657    0.005880376835
 C   -2.427180692352    1.690253101296   -0.002574476323
 H   -3.237234221139    2.416833902398    0.001473661540
 H   -3.572543266290   -0.127016581338   -0.025212866800
LI    9.822456383498   -3.757341356898    0.108031250976
