16

 N   -2.673446945285    0.334775891470   -0.017663325490
 C   -1.441321213018   -0.295514388538   -0.016708365182
 N   -1.171180276892   -1.616399863506   -0.020172554129
 C    0.156948891571   -1.834593756256   -0.004605125466
 H    0.470757174541   -2.881272488746   -0.001225554775
 N    1.169298334612   -0.926612799115    0.009366144809
 C    0.857081590705    0.384208284134    0.004719740909
 N    1.864708545507    1.308706921439   -0.037102096022
 H    2.796160082894    0.978176812687    0.185355838111
 H    1.631971039480    2.268677676478    0.187708149418
 C   -0.508419250169    0.760902138001   -0.004051346806
 N   -1.131948561360    1.999867838631    0.005826862212
 C   -2.431874048517    1.691788450270   -0.002627990946
 H   -3.241927577304    2.418369251372    0.001420146917
 H   -3.577236622455   -0.125481232364   -0.025266381423
LI    9.912801100879   -3.786896043186    0.109061380216
