16

 N   -2.682833657616    0.337846589417   -0.017770354734
 C   -1.450707925349   -0.292443690591   -0.016815394426
 N   -1.180566989223   -1.613329165559   -0.020279583373
 C    0.147562179240   -1.831523058309   -0.004712154710
 H    0.461370462210   -2.878201790799   -0.001332584019
 N    1.159911622281   -0.923542101168    0.009259115565
 C    0.847694878374    0.387278982081    0.004612711665
 N    1.855321833176    1.311777619386   -0.037209125266
 H    2.786773370563    0.981247510634    0.185248808867
 H    1.622584327149    2.271748374425    0.187601120174
 C   -0.517805962500    0.763972835948   -0.004158376050
 N   -1.141335273691    2.002938536578    0.005719832968
 C   -2.441260760848    1.694859148217   -0.002735020190
 H   -3.251314289635    2.421439949319    0.001313117673
 H   -3.586623334786   -0.122410534417   -0.025373410667
LI   10.093490535641   -3.846005415762    0.111121638698
