16

 N   -2.687527013781    0.339381938391   -0.017823869356
 C   -1.455401281514   -0.290908341617   -0.016868909048
 N   -1.185260345388   -1.611793816585   -0.020333097995
 C    0.142868823075   -1.829987709335   -0.004765669332
 H    0.456677106045   -2.876666441825   -0.001386098641
 N    1.155218266116   -0.922006752194    0.009205600943
 C    0.843001522209    0.388814331055    0.004559197043
 N    1.850628477011    1.313312968360   -0.037262639888
 H    2.782080014398    0.982782859608    0.185195294245
 H    1.617890970984    2.273283723399    0.187547605552
 C   -0.522499318665    0.765508184922   -0.004211890672
 N   -1.146028629856    2.004473885552    0.005666318346
 C   -2.445954117013    1.696394497191   -0.002788534812
 H   -3.256007645800    2.422975298293    0.001259603051
 H   -3.591316690951   -0.120875185443   -0.025426925289
LI   10.183835253022   -3.875560102050    0.112151767939
