16

 N   -2.706300438442    0.345523334285   -0.018037927845
 C   -1.474174706175   -0.284766945723   -0.017082967537
 N   -1.204033770049   -1.605652420691   -0.020547156484
 C    0.124095398414   -1.823846313441   -0.004979727821
 H    0.437903681384   -2.870525045931   -0.001600157130
 N    1.136444841455   -0.915865356300    0.008991542454
 C    0.824228097548    0.394955726949    0.004345138554
 N    1.831855052350    1.319454364254   -0.037476698377
 H    2.763306589737    0.988924255502    0.184981235756
 H    1.599117546323    2.279425119293    0.187333547063
 C   -0.541272743326    0.771649580816   -0.004425949161
 N   -1.164802054517    2.010615281446    0.005452259857
 C   -2.464727541674    1.702535893085   -0.003002593301
 H   -3.274781070461    2.429116694187    0.001045544562
 H   -3.610090115612   -0.114733789549   -0.025640983778
LI   10.545214122546   -3.993778847202    0.116272284902
