7

 C   -1.512531837145    1.785912669046    0.000000000000
 O   -1.512531837145    0.351026669046    0.000000000000
 H   -0.593521837145    0.054225669046    0.000000000000
 H   -2.565850837145    2.093901669046    0.000000000000
 H   -1.023865837145    2.196845669046    0.899440000000
 H   -1.023865837145    2.196845669046   -0.899440000000
CS    0.358081997736   -0.253101748280    0.000000000000
