7

 C   -1.589214102162    1.810677767292    0.000000000000
 O   -1.589214102162    0.375791767292    0.000000000000
 H   -0.670204102162    0.078990767292    0.000000000000
 H   -2.642533102162    2.118666767292    0.000000000000
 H   -1.100548102162    2.221610767292    0.899440000000
 H   -1.100548102162    2.221610767292   -0.899440000000
CS    0.376560116207   -0.259069391767    0.000000000000
