7

 C   -1.819260897212    1.884973062030    0.000000000000
 O   -1.819260897212    0.450087062030    0.000000000000
 H   -0.900250897212    0.153286062030    0.000000000000
 H   -2.872579897212    2.192962062030    0.000000000000
 H   -1.330594897212    2.295906062030    0.899440000000
 H   -1.330594897212    2.295906062030   -0.899440000000
CS    0.431994471621   -0.276972322226    0.000000000000
