7

 C   -1.972625427245    1.934503258523    0.000000000000
 O   -1.972625427245    0.499617258523    0.000000000000
 H   -1.053615427245    0.202816258523    0.000000000000
 H   -3.025944427245    2.242492258523    0.000000000000
 H   -1.483959427245    2.345436258523    0.899440000000
 H   -1.483959427245    2.345436258523   -0.899440000000
CS    0.468950708564   -0.288907609198    0.000000000000
