7

 C   -2.049307692262    1.959268356769    0.000000000000
 O   -2.049307692262    0.524382356769    0.000000000000
 H   -1.130297692262    0.227581356769    0.000000000000
 H   -3.102626692262    2.267257356769    0.000000000000
 H   -1.560641692262    2.370201356769    0.899440000000
 H   -1.560641692262    2.370201356769   -0.899440000000
CS    0.487428827035   -0.294875252685    0.000000000000
