7

 C   -8.413935688649    4.014771511202    0.000000000000
 O   -8.413935688649    2.579885511202    0.000000000000
 H   -7.494925688649    2.283084511202    0.000000000000
 H   -9.467254688649    4.322760511202    0.000000000000
 H   -7.925269688649    4.425704511202    0.899440000000
 H   -7.925269688649    4.425704511202   -0.899440000000
CS    2.021112660159   -0.790189662055    0.000000000000
