7

 C   -2.356036752329    2.058328749754    0.000000000000
 O   -2.356036752329    0.623442749754    0.000000000000
 H   -1.437026752329    0.326641749754    0.000000000000
 H   -3.409355752329    2.366317749754    0.000000000000
 H   -1.867370752329    2.469261749754    0.899440000000
 H   -1.867370752329    2.469261749754   -0.899440000000
CS    0.561341300921   -0.318745826630    0.000000000000
