7

 C   -2.509401282362    2.107858946246    0.000000000000
 O   -2.509401282362    0.672972946246    0.000000000000
 H   -1.590391282362    0.376171946246    0.000000000000
 H   -3.562720282362    2.415847946246    0.000000000000
 H   -2.020735282362    2.518791946246    0.899440000000
 H   -2.020735282362    2.518791946246   -0.899440000000
CS    0.598297537864   -0.330681113603    0.000000000000
