7

 C   -2.662765812396    2.157389142738    0.000000000000
 O   -2.662765812396    0.722503142738    0.000000000000
 H   -1.743755812396    0.425702142738    0.000000000000
 H   -3.716084812396    2.465378142738    0.000000000000
 H   -2.174099812396    2.568322142738    0.899440000000
 H   -2.174099812396    2.568322142738   -0.899440000000
CS    0.635253774806   -0.342616400576    0.000000000000
