7

 C   -3.199541667513    2.330744830462    0.000000000000
 O   -3.199541667513    0.895858830462    0.000000000000
 H   -2.280531667513    0.599057830462    0.000000000000
 H   -4.252860667513    2.638733830462    0.000000000000
 H   -2.710875667513    2.741677830462    0.899440000000
 H   -2.710875667513    2.741677830462   -0.899440000000
CS    0.764600604106   -0.384389904981    0.000000000000
