7

 C   -3.352906197546    2.380275026954    0.000000000000
 O   -3.352906197546    0.945389026954    0.000000000000
 H   -2.433896197546    0.648588026954    0.000000000000
 H   -4.406225197546    2.688264026954    0.000000000000
 H   -2.864240197546    2.791208026954    0.899440000000
 H   -2.864240197546    2.791208026954   -0.899440000000
CS    0.801556841049   -0.396325191953    0.000000000000
