7

 C   -3.429588462563    2.405040125200    0.000000000000
 O   -3.429588462563    0.970154125200    0.000000000000
 H   -2.510578462563    0.673353125200    0.000000000000
 H   -4.482907462563    2.713029125200    0.000000000000
 H   -2.940922462563    2.815973125200    0.899440000000
 H   -2.940922462563    2.815973125200   -0.899440000000
CS    0.820034959520   -0.402292835440    0.000000000000
