7

 C   -3.506270727580    2.429805223446    0.000000000000
 O   -3.506270727580    0.994919223446    0.000000000000
 H   -2.587260727580    0.698118223446    0.000000000000
 H   -4.559589727580    2.737794223446    0.000000000000
 H   -3.017604727580    2.840738223446    0.899440000000
 H   -3.017604727580    2.840738223446   -0.899440000000
CS    0.838513077991   -0.408260478926    0.000000000000
