7

 C   -3.812999787646    2.528865616431    0.000000000000
 O   -3.812999787646    1.093979616431    0.000000000000
 H   -2.893989787646    0.797178616431    0.000000000000
 H   -4.866318787646    2.836854616431    0.000000000000
 H   -3.324333787646    2.939798616431    0.899440000000
 H   -3.324333787646    2.939798616431   -0.899440000000
CS    0.912425551877   -0.432131052872    0.000000000000
