7

 C   -3.966364317680    2.578395812923    0.000000000000
 O   -3.966364317680    1.143509812923    0.000000000000
 H   -3.047354317680    0.846708812923    0.000000000000
 H   -5.019683317680    2.886384812923    0.000000000000
 H   -3.477698317680    2.989328812923    0.899440000000
 H   -3.477698317680    2.989328812923   -0.899440000000
CS    0.949381788820   -0.444066339844    0.000000000000
