7

 C   -4.043046582697    2.603160911170    0.000000000000
 O   -4.043046582697    1.168274911170    0.000000000000
 H   -3.124036582697    0.871473911170    0.000000000000
 H   -5.096365582697    2.911149911170    0.000000000000
 H   -3.554380582697    3.014093911170    0.899440000000
 H   -3.554380582697    3.014093911170   -0.899440000000
CS    0.967859907291   -0.450033983331    0.000000000000
