7

 C   -4.196411112730    2.652691107662    0.000000000000
 O   -4.196411112730    1.217805107662    0.000000000000
 H   -3.277401112730    0.921004107662    0.000000000000
 H   -5.249730112730    2.960680107662    0.000000000000
 H   -3.707745112730    3.063624107662    0.899440000000
 H   -3.707745112730    3.063624107662   -0.899440000000
CS    1.004816144234   -0.461969270304    0.000000000000
