7

 C   -4.809869232864    2.850811893632    0.000000000000
 O   -4.809869232864    1.415925893632    0.000000000000
 H   -3.890859232864    1.119124893632    0.000000000000
 H   -5.863188232864    3.158800893632    0.000000000000
 H   -4.321203232864    3.261744893632    0.899440000000
 H   -4.321203232864    3.261744893632   -0.899440000000
CS    1.152641092005   -0.509710418195    0.000000000000
