7

 C   -4.886551497881    2.875576991878    0.000000000000
 O   -4.886551497881    1.440690991878    0.000000000000
 H   -3.967541497881    1.143889991878    0.000000000000
 H   -5.939870497881    3.183565991878    0.000000000000
 H   -4.397885497881    3.286509991878    0.899440000000
 H   -4.397885497881    3.286509991878   -0.899440000000
CS    1.171119210476   -0.515678061681    0.000000000000
