7

 C   -5.116598292931    2.949872286616    0.000000000000
 O   -5.116598292931    1.514986286616    0.000000000000
 H   -4.197588292931    1.218185286616    0.000000000000
 H   -6.169917292931    3.257861286616    0.000000000000
 H   -4.627932292931    3.360805286616    0.899440000000
 H   -4.627932292931    3.360805286616   -0.899440000000
CS    1.226553565890   -0.533580992140    0.000000000000
