7

 C   -5.193280557947    2.974637384862    0.000000000000
 O   -5.193280557947    1.539751384862    0.000000000000
 H   -4.274270557947    1.242950384862    0.000000000000
 H   -6.246599557947    3.282626384862    0.000000000000
 H   -4.704614557947    3.385570384862    0.899440000000
 H   -4.704614557947    3.385570384862   -0.899440000000
CS    1.245031684362   -0.539548635626    0.000000000000
