7

 C   -7.647113038482    3.767120528740    0.000000000000
 O   -7.647113038482    2.332234528740    0.000000000000
 H   -6.728103038482    2.035433528740    0.000000000000
 H   -8.700432038482    4.075109528740    0.000000000000
 H   -7.158447038482    4.178053528740    0.899440000000
 H   -7.158447038482    4.178053528740   -0.899440000000
CS    1.836331475445   -0.730513227191    0.000000000000
