17

 N   -0.922008246513   -1.786705222011    0.423969989777
 C    0.288179820331   -1.131499018335    0.427931613745
 N    1.521592234634   -1.730176712797    0.439969898650
 C    2.492015434690   -0.840000571186    0.428097441677
 N    2.288938597277    0.521637562328    0.421262281335
 H    3.092765722528    1.141598102083    0.339274258913
 N    3.817470188927   -1.258675292866    0.349750138442
 H    4.472006394259   -0.726872068466    0.917390915172
 H    3.896275276318   -2.259375436801    0.511333476431
 C    1.029664854960    1.207671265859    0.434216068012
 O    1.002084485855    2.435844350636    0.430127939584
 C   -0.043120271016    0.233977876585    0.440417265952
 N   -1.414193572785    0.420308921898    0.440342081236
 C   -1.907717067296   -0.818294092147    0.430011981571
 H   -2.965214980564   -1.072440713979    0.427065337145
 H   -1.047105243044   -2.793288307243    0.415310438746
RB   -1.412583564174    0.431671613955   -0.759603041302
