17

 N   -0.922056527301   -1.787045965362    0.459953832367
 C    0.288131539543   -1.131839761686    0.463915456335
 N    1.521543953846   -1.730517456148    0.475953741240
 C    2.491967153902   -0.840341314537    0.464081284267
 N    2.288890316489    0.521296818977    0.457246123925
 H    3.092717441740    1.141257358732    0.375258101503
 N    3.817421908139   -1.259016036217    0.385733981032
 H    4.471958113471   -0.727212811817    0.953374757762
 H    3.896226995530   -2.259716180152    0.547317319021
 C    1.029616574172    1.207330522508    0.470199910602
 O    1.002036205067    2.435503607285    0.466111782174
 C   -0.043168551804    0.233637133234    0.476401108542
 N   -1.414241853573    0.419968178547    0.476325923826
 C   -1.907765348084   -0.818634835498    0.465995824161
 H   -2.965263261352   -1.072781457330    0.463049179735
 H   -1.047153523832   -2.793629050594    0.451294281336
RB   -1.412497677578    0.432277761608   -0.823614625589
