17

 N   -0.922104808089   -1.787386708713    0.495937674958
 C    0.288083258755   -1.132180505037    0.499899298926
 N    1.521495673058   -1.730858199499    0.511937583831
 C    2.491918873114   -0.840682057888    0.500065126858
 N    2.288842035701    0.520956075626    0.493229966516
 H    3.092669160952    1.140916615381    0.411241944094
 N    3.817373627351   -1.259356779568    0.421717823623
 H    4.471909832683   -0.727553555168    0.989358600353
 H    3.896178714742   -2.260056923503    0.583301161612
 C    1.029568293384    1.206989779157    0.506183753193
 O    1.001987924279    2.435162863934    0.502095624765
 C   -0.043216832592    0.233296389883    0.512384951133
 N   -1.414290134361    0.419627435196    0.512309766417
 C   -1.907813628872   -0.818975578849    0.501979666752
 H   -2.965311542140   -1.073122200681    0.499033022326
 H   -1.047201804620   -2.793969793945    0.487278123927
RB   -1.412411790982    0.432883909262   -0.887626209876
