17

 N   -0.922153088877   -1.787727452064    0.531921517549
 C    0.288034977967   -1.132521248388    0.535883141517
 N    1.521447392270   -1.731198942850    0.547921426422
 C    2.491870592326   -0.841022801239    0.536048969449
 N    2.288793754913    0.520615332275    0.529213809107
 H    3.092620880164    1.140575872030    0.447225786685
 N    3.817325346563   -1.259697522919    0.457701666214
 H    4.471861551895   -0.727894298519    1.025342442944
 H    3.896130433954   -2.260397666854    0.619285004203
 C    1.029520012596    1.206649035806    0.542167595784
 O    1.001939643491    2.434822120583    0.538079467356
 C   -0.043265113380    0.232955646532    0.548368793724
 N   -1.414338415149    0.419286691845    0.548293609008
 C   -1.907861909660   -0.819316322200    0.537963509343
 H   -2.965359822928   -1.073462944032    0.535016864917
 H   -1.047250085408   -2.794310537296    0.523261966518
RB   -1.412325904386    0.433490056915   -0.951637794164
