17

 N   -0.922201369666   -1.788068195416    0.567905360140
 C    0.287986697178   -1.132861991740    0.571866984108
 N    1.521399111481   -1.731539686202    0.583905269013
 C    2.491822311537   -0.841363544591    0.572032812040
 N    2.288745474124    0.520274588923    0.565197651698
 H    3.092572599375    1.140235128678    0.483209629276
 N    3.817277065774   -1.260038266271    0.493685508805
 H    4.471813271106   -0.728235041871    1.061326285535
 H    3.896082153165   -2.260738410206    0.655268846794
 C    1.029471731807    1.206308292454    0.578151438375
 O    1.001891362702    2.434481377231    0.574063309947
 C   -0.043313394169    0.232614903180    0.584352636315
 N   -1.414386695938    0.418945948493    0.584277451599
 C   -1.907910190449   -0.819657065552    0.573947351934
 H   -2.965408103717   -1.073803687384    0.571000707508
 H   -1.047298366197   -2.794651280648    0.559245809109
RB   -1.412240017790    0.434096204569   -1.015649378451
