17

 N   -0.922249650454   -1.788408938767    0.603889202731
 C    0.287938416390   -1.133202735091    0.607850826699
 N    1.521350830693   -1.731880429553    0.619889111604
 C    2.491774030749   -0.841704287942    0.608016654631
 N    2.288697193336    0.519933845572    0.601181494289
 H    3.092524318587    1.139894385327    0.519193471867
 N    3.817228784986   -1.260379009622    0.529669351396
 H    4.471764990318   -0.728575785222    1.097310128126
 H    3.896033872377   -2.261079153557    0.691252689385
 C    1.029423451019    1.205967549103    0.614135280966
 O    1.001843081914    2.434140633880    0.610047152538
 C   -0.043361674957    0.232274159829    0.620336478906
 N   -1.414434976726    0.418605205142    0.620261294190
 C   -1.907958471237   -0.819997808903    0.609931194525
 H   -2.965456384505   -1.074144430735    0.606984550099
 H   -1.047346646985   -2.794992023999    0.595229651700
RB   -1.412154131194    0.434702352222   -1.079660962738
