17

 N   -0.926256955882   -1.816690636921    3.590548137773
 C    0.283931110962   -1.161484433245    3.594509761741
 N    1.517343525265   -1.760162127707    3.606548046646
 C    2.487766725321   -0.869985986096    3.594675589673
 N    2.284689887908    0.491652147418    3.587840429331
 H    3.088517013159    1.111612687173    3.505852406909
 N    3.813221479558   -1.288660707776    3.516328286438
 H    4.467757684890   -0.756857483376    4.083969063168
 H    3.892026566949   -2.289360851711    3.677911624427
 C    1.025416145591    1.177685850949    3.600794216008
 O    0.997835776486    2.405858935726    3.596706087580
 C   -0.047368980385    0.203992461675    3.606995413948
 N   -1.418442282154    0.390323506988    3.606920229232
 C   -1.911965776665   -0.848279507057    3.596590129567
 H   -2.969463689933   -1.102426128889    3.593643485141
 H   -1.051353952413   -2.823273722153    3.581888586742
RB   -1.405025543732    0.485012607459   -6.392622458581
