17

 N   -0.922491054395   -1.790112655523    0.783808415685
 C    0.287697012449   -1.134906451847    0.787770039653
 N    1.521109426752   -1.733584146309    0.799808324558
 C    2.491532626808   -0.843408004698    0.787935867585
 N    2.288455789395    0.518230128816    0.781100707243
 H    3.092282914646    1.138190668571    0.699112684821
 N    3.816987381045   -1.262082726378    0.709588564350
 H    4.471523586377   -0.730279501978    1.277229341080
 H    3.895792468436   -2.262782870313    0.871171902339
 C    1.029182047078    1.204263832347    0.794054493920
 O    1.001601677973    2.432436917124    0.789966365492
 C   -0.043603078898    0.230570443073    0.800255691860
 N   -1.414676380667    0.416901488386    0.800180507144
 C   -1.908199875178   -0.821701525659    0.789850407479
 H   -2.965697788446   -1.075848147491    0.786903763053
 H   -1.047588050926   -2.796695740755    0.775148864654
RB   -1.411724698215    0.437733090489   -1.399718884174
