17

 N   -0.922539335184   -1.790453398874    0.819792258276
 C    0.287648731660   -1.135247195198    0.823753882244
 N    1.521061145963   -1.733924889660    0.835792167149
 C    2.491484346019   -0.843748748049    0.823919710176
 N    2.288407508606    0.517889385465    0.817084549834
 H    3.092234633857    1.137849925220    0.735096527412
 N    3.816939100256   -1.262423469729    0.745572406941
 H    4.471475305588   -0.730620245329    1.313213183671
 H    3.895744187647   -2.263123613664    0.907155744930
 C    1.029133766289    1.203923088996    0.830038336511
 O    1.001553397184    2.432096173773    0.825950208083
 C   -0.043651359687    0.230229699722    0.836239534451
 N   -1.414724661456    0.416560745035    0.836164349735
 C   -1.908248155967   -0.822042269010    0.825834250070
 H   -2.965746069235   -1.076188890842    0.822887605644
 H   -1.047636331715   -2.797036484106    0.811132707245
RB   -1.411638811619    0.438339238143   -1.463730468462
