17

 N   -0.922587615972   -1.790794142226    0.855776100867
 C    0.287600450872   -1.135587938550    0.859737724835
 N    1.521012865175   -1.734265633012    0.871776009740
 C    2.491436065231   -0.844089491401    0.859903552767
 N    2.288359227818    0.517548642113    0.853068392425
 H    3.092186353069    1.137509181868    0.771080370003
 N    3.816890819468   -1.262764213081    0.781556249532
 H    4.471427024800   -0.730960988681    1.349197026262
 H    3.895695906859   -2.263464357016    0.943139587521
 C    1.029085485501    1.203582345644    0.866022179102
 O    1.001505116396    2.431755430421    0.861934050674
 C   -0.043699640475    0.229888956370    0.872223377042
 N   -1.414772942244    0.416220001683    0.872148192326
 C   -1.908296436755   -0.822383012362    0.861818092661
 H   -2.965794350023   -1.076529634194    0.858871448235
 H   -1.047684612503   -2.797377227458    0.847116549836
RB   -1.411552925023    0.438945385796   -1.527742052749
