17

 N   -0.922732458337   -1.791816372279    0.963727628640
 C    0.287455608507   -1.136610168603    0.967689252608
 N    1.520868022810   -1.735287863065    0.979727537513
 C    2.491291222866   -0.845111721454    0.967855080540
 N    2.288214385453    0.516526412060    0.961019920198
 H    3.092041510704    1.136486951815    0.879031897776
 N    3.816745977103   -1.263786443134    0.889507777305
 H    4.471282182435   -0.731983218734    1.457148554035
 H    3.895551064494   -2.264486587069    1.051091115294
 C    1.028940643136    1.202560115591    0.973973706875
 O    1.001360274031    2.430733200368    0.969885578447
 C   -0.043844482840    0.228866726317    0.980174904815
 N   -1.414917784609    0.415197771630    0.980099720099
 C   -1.908441279120   -0.823405242415    0.969769620434
 H   -2.965939192388   -1.077551864247    0.966822976008
 H   -1.047829454868   -2.798399457511    0.955068077609
RB   -1.411295265235    0.440763828757   -1.719776805611
