17

 N   -0.922780739125   -1.792157115631    0.999711471230
 C    0.287407327719   -1.136950911955    1.003673095198
 N    1.520819742022   -1.735628606417    1.015711380103
 C    2.491242942078   -0.845452464806    1.003838923130
 N    2.288166104665    0.516185668708    0.997003762788
 H    3.091993229916    1.136146208463    0.915015740366
 N    3.816697696315   -1.264127186486    0.925491619895
 H    4.471233901647   -0.732323962086    1.493132396625
 H    3.895502783706   -2.264827330421    1.087074957884
 C    1.028892362348    1.202219372239    1.009957549465
 O    1.001311993243    2.430392457016    1.005869421037
 C   -0.043892763628    0.228525982965    1.016158747405
 N   -1.414966065397    0.414857028278    1.016083562689
 C   -1.908489559908   -0.823745985767    1.005753463024
 H   -2.965987473176   -1.077892607599    1.002806818598
 H   -1.047877735656   -2.798740200863    0.991051920199
RB   -1.411209378639    0.441369976410   -1.783788389898
