17

 N   -0.922973862278   -1.793520089036    1.143646841594
 C    0.287214204566   -1.138313885360    1.147608465562
 N    1.520626618869   -1.736991579822    1.159646750467
 C    2.491049818925   -0.846815438211    1.147774293494
 N    2.287972981512    0.514822695303    1.140939133152
 H    3.091800106763    1.134783235058    1.058951110730
 N    3.816504573162   -1.265490159891    1.069426990259
 H    4.471040778494   -0.733686935491    1.637067766989
 H    3.895309660553   -2.266190303826    1.231010328248
 C    1.028699239195    1.200856398834    1.153892919829
 O    1.001118870090    2.429029483611    1.149804791401
 C   -0.044085886781    0.227163009560    1.160094117769
 N   -1.415159188550    0.413494054873    1.160018933053
 C   -1.908682683061   -0.825108959172    1.149688833388
 H   -2.966180596329   -1.079255581004    1.146742188962
 H   -1.048070858809   -2.800103174268    1.134987290563
RB   -1.410865832255    0.443794567024   -2.039834727047
