17

 N   -0.923118704643   -1.794542319089    1.251598369367
 C    0.287069362201   -1.139336115413    1.255559993335
 N    1.520481776504   -1.738013809875    1.267598278240
 C    2.490904976560   -0.847837668264    1.255725821267
 N    2.287828139147    0.513800465250    1.248890660925
 H    3.091655264398    1.133761005005    1.166902638503
 N    3.816359730797   -1.266512389944    1.177378518032
 H    4.470895936129   -0.734709165544    1.745019294762
 H    3.895164818188   -2.267212533879    1.338961856021
 C    1.028554396830    1.199834168781    1.261844447602
 O    1.000974027725    2.428007253558    1.257756319174
 C   -0.044230729146    0.226140779507    1.268045645542
 N   -1.415304030915    0.412471824820    1.267970460826
 C   -1.908827525426   -0.826131189225    1.257640361161
 H   -2.966325438694   -1.080277811057    1.254693716735
 H   -1.048215701174   -2.801125404321    1.242938818336
RB   -1.410608172467    0.445613009984   -2.231869479909
