17

 N   -0.923360108585   -1.796246035846    1.431517582321
 C    0.286827958259   -1.141039832170    1.435479206289
 N    1.520240372562   -1.739717526632    1.447517491194
 C    2.490663572618   -0.849541385021    1.435645034221
 N    2.287586735205    0.512096748493    1.428809873879
 H    3.091413860456    1.132057288248    1.346821851457
 N    3.816118326855   -1.268216106701    1.357297730986
 H    4.470654532187   -0.736412882301    1.924938507716
 H    3.894923414246   -2.268916250636    1.518881068975
 C    1.028312992888    1.198130452024    1.441763660556
 O    1.000732623783    2.426303536801    1.437675532128
 C   -0.044472133088    0.224437062750    1.447964858496
 N   -1.415545434857    0.410768108063    1.447889673780
 C   -1.909068929368   -0.827834905982    1.437559574115
 H   -2.966566842636   -1.081981527814    1.434612929689
 H   -1.048457105116   -2.802829121078    1.422858031290
RB   -1.410178739488    0.448643748252   -2.551927401345
