17

 N   -0.923504950949   -1.797268265899    1.539469110093
 C    0.286683115895   -1.142062062223    1.543430734061
 N    1.520095530198   -1.740739756685    1.555469018966
 C    2.490518730254   -0.850563615074    1.543596561993
 N    2.287441892841    0.511074518440    1.536761401651
 H    3.091269018092    1.131035058195    1.454773379229
 N    3.815973484491   -1.269238336754    1.465249258758
 H    4.470509689823   -0.737435112354    2.032890035488
 H    3.894778571882   -2.269938480689    1.626832596747
 C    1.028168150524    1.197108221971    1.549715188328
 O    1.000587781419    2.425281306748    1.545627059900
 C   -0.044616975452    0.223414832697    1.555916386268
 N   -1.415690277221    0.409745878010    1.555841201552
 C   -1.909213771732   -0.828857136035    1.545511101887
 H   -2.966711685000   -1.083003757867    1.542564457461
 H   -1.048601947480   -2.803851351131    1.530809559062
RB   -1.409921079700    0.450462191212   -2.743962154207
