17

 N   -0.923553231738   -1.797609009251    1.575452952684
 C    0.286634835106   -1.142402805575    1.579414576652
 N    1.520047249409   -1.741080500037    1.591452861557
 C    2.490470449465   -0.850904358426    1.579580404584
 N    2.287393612052    0.510733775088    1.572745244242
 H    3.091220737303    1.130694314843    1.490757221820
 N    3.815925203702   -1.269579080106    1.501233101349
 H    4.470461409034   -0.737775855706    2.068873878079
 H    3.894730291093   -2.270279224041    1.662816439338
 C    1.028119869735    1.196767478619    1.585699030919
 O    1.000539500630    2.424940563396    1.581610902491
 C   -0.044665256241    0.223074089345    1.591900228859
 N   -1.415738558010    0.409405134658    1.591825044143
 C   -1.909262052521   -0.829197879387    1.581494944478
 H   -2.966759965789   -1.083344501219    1.578548300052
 H   -1.048650228269   -2.804192094483    1.566793401653
RB   -1.409835193104    0.451068338866   -2.807973738494
