17

 N   -0.923649793314   -1.798290495953    1.647420637866
 C    0.286538273530   -1.143084292277    1.651382261834
 N    1.519950687833   -1.741761986739    1.663420546739
 C    2.490373887889   -0.851585845128    1.651548089766
 N    2.287297050476    0.510052288386    1.644712929424
 H    3.091124175727    1.130012828141    1.562724907002
 N    3.815828642126   -1.270260566808    1.573200786531
 H    4.470364847458   -0.738457342408    2.140841563261
 H    3.894633729517   -2.270960710743    1.734784124520
 C    1.028023308159    1.196085991917    1.657666716101
 O    1.000442939054    2.424259076694    1.653578587673
 C   -0.044761817817    0.222392602643    1.663867914041
 N   -1.415835119586    0.408723647956    1.663792729325
 C   -1.909358614097   -0.829879366089    1.653462629660
 H   -2.966856527365   -1.084025987921    1.650515985234
 H   -1.048746789845   -2.804873581185    1.638761086835
RB   -1.409663419912    0.452280634172   -2.935996907069
