17

 N   -0.923746354891   -1.798971982656    1.719388323048
 C    0.286441711953   -1.143765778980    1.723349947016
 N    1.519854126256   -1.742443473442    1.735388231921
 C    2.490277326312   -0.852267331831    1.723515774948
 N    2.287200488899    0.509370801683    1.716680614606
 H    3.091027614150    1.129331341438    1.634692592184
 N    3.815732080549   -1.270942053511    1.645168471713
 H    4.470268285881   -0.739138829111    2.212809248443
 H    3.894537167940   -2.271642197446    1.806751809702
 C    1.027926746582    1.195404505214    1.729634401283
 O    1.000346377477    2.423577589991    1.725546272855
 C   -0.044858379394    0.221711115940    1.735835599223
 N   -1.415931681163    0.408042161253    1.735760414507
 C   -1.909455175674   -0.830560852792    1.725430314842
 H   -2.966953088942   -1.084707474624    1.722483670416
 H   -1.048843351422   -2.805555067888    1.710728772017
RB   -1.409491646720    0.453492929479   -3.064020075643
