17

 N   -0.924277443562   -1.802720159519    2.115210591547
 C    0.285910623282   -1.147513955843    2.119172215515
 N    1.519323037585   -1.746191650305    2.131210500420
 C    2.489746237641   -0.856015508694    2.119338043447
 N    2.286669400228    0.505622624820    2.112502883105
 H    3.090496525479    1.125583164575    2.030514860683
 N    3.815200991878   -1.274690230374    2.040990740212
 H    4.469737197210   -0.742887005974    2.608631516942
 H    3.894006079269   -2.275390374309    2.202574078201
 C    1.027395657911    1.191656328351    2.125456669782
 O    0.999815288806    2.419829413128    2.121368541354
 C   -0.045389468065    0.217962939077    2.131657867722
 N   -1.416462769834    0.404293984390    2.131582683006
 C   -1.909986264345   -0.834309029655    2.121252583341
 H   -2.967484177613   -1.088455651487    2.118305938915
 H   -1.049374440093   -2.809303244751    2.106551040516
RB   -1.408546894165    0.460160553667   -3.768147502803
