17

 N   -0.924374005139   -1.803401646222    2.187178276729
 C    0.285814061705   -1.148195442546    2.191139900697
 N    1.519226476008   -1.746873137008    2.203178185602
 C    2.489649676064   -0.856696995397    2.191305728629
 N    2.286572838651    0.504941138117    2.184470568287
 H    3.090399963902    1.124901677872    2.102482545865
 N    3.815104430301   -1.275371717077    2.112958425394
 H    4.469640635633   -0.743568492677    2.680599202124
 H    3.893909517692   -2.276071861012    2.274541763383
 C    1.027299096334    1.190974841648    2.197424354964
 O    0.999718727229    2.419147926425    2.193336226536
 C   -0.045486029642    0.217281452374    2.203625552904
 N   -1.416559331411    0.403612497687    2.203550368188
 C   -1.910082825922   -0.834990516358    2.193220268523
 H   -2.967580739190   -1.089137138190    2.190273624097
 H   -1.049471001670   -2.809984731454    2.178518725698
RB   -1.408375120973    0.461372848974   -3.896170671378
