17

 N   -0.924567128292   -1.804764619627    2.331113647092
 C    0.285620938552   -1.149558415951    2.335075271060
 N    1.519033352855   -1.748236110413    2.347113555965
 C    2.489456552911   -0.858059968802    2.335241098992
 N    2.286379715498    0.503578164712    2.328405938650
 H    3.090206840749    1.123538704467    2.246417916228
 N    3.814911307148   -1.276734690482    2.256893795757
 H    4.469447512480   -0.744931466082    2.824534572487
 H    3.893716394539   -2.277434834417    2.418477133746
 C    1.027105973181    1.189611868243    2.341359725327
 O    0.999525604076    2.417784953020    2.337271596899
 C   -0.045679152795    0.215918478969    2.347560923267
 N   -1.416752454564    0.402249524282    2.347485738551
 C   -1.910275949075   -0.836353489763    2.337155638886
 H   -2.967773862343   -1.090500111595    2.334208994460
 H   -1.049664124823   -2.811347704859    2.322454096061
RB   -1.408031574589    0.463797439588   -4.152217008527
