17

 N   -0.924615409080   -1.805105362978    2.367097489683
 C    0.285572657764   -1.149899159302    2.371059113651
 N    1.518985072067   -1.748576853764    2.383097398556
 C    2.489408272123   -0.858400712153    2.371224941583
 N    2.286331434710    0.503237421361    2.364389781241
 H    3.090158559961    1.123197961116    2.282401758819
 N    3.814863026360   -1.277075433833    2.292877638348
 H    4.469399231692   -0.745272209433    2.860518415078
 H    3.893668113751   -2.277775577768    2.454460976337
 C    1.027057692393    1.189271124892    2.377343567918
 O    0.999477323288    2.417444209669    2.373255439490
 C   -0.045727433583    0.215577735618    2.383544765858
 N   -1.416800735352    0.401908780931    2.383469581142
 C   -1.910324229863   -0.836694233114    2.373139481477
 H   -2.967822143131   -1.090840854946    2.370192837051
 H   -1.049712405611   -2.811688448210    2.358437938652
RB   -1.407945687993    0.464403587242   -4.216228592814
