17

 N   -0.924663689868   -1.805446106329    2.403081332274
 C    0.285524376976   -1.150239902653    2.407042956242
 N    1.518936791279   -1.748917597115    2.419081241147
 C    2.489359991335   -0.858741455504    2.407208784174
 N    2.286283153922    0.502896678010    2.400373623832
 H    3.090110279173    1.122857217765    2.318385601410
 N    3.814814745572   -1.277416177184    2.328861480939
 H    4.469350950904   -0.745612952784    2.896502257669
 H    3.893619832963   -2.278116321119    2.490444818928
 C    1.027009411605    1.188930381541    2.413327410509
 O    0.999429042500    2.417103466318    2.409239282081
 C   -0.045775714371    0.215236992267    2.419528608449
 N   -1.416849016140    0.401568037580    2.419453423733
 C   -1.910372510651   -0.837034976465    2.409123324068
 H   -2.967870423919   -1.091181598297    2.406176679642
 H   -1.049760686399   -2.812029191561    2.394421781243
RB   -1.407859801397    0.465009734895   -4.280240177101
