17

 N   -0.924711970657   -1.805786849681    2.439065174865
 C    0.285476096187   -1.150580646005    2.443026798833
 N    1.518888510490   -1.749258340467    2.455065083738
 C    2.489311710546   -0.859082198856    2.443192626765
 N    2.286234873133    0.502555934658    2.436357466423
 H    3.090061998384    1.122516474413    2.354369444001
 N    3.814766464783   -1.277756920536    2.364845323530
 H    4.469302670115   -0.745953696136    2.932486100260
 H    3.893571552174   -2.278457064471    2.526428661519
 C    1.026961130816    1.188589638189    2.449311253100
 O    0.999380761711    2.416762722966    2.445223124672
 C   -0.045823995160    0.214896248915    2.455512451040
 N   -1.416897296929    0.401227294228    2.455437266324
 C   -1.910420791440   -0.837375719817    2.445107166659
 H   -2.967918704708   -1.091522341649    2.442160522233
 H   -1.049808967188   -2.812369934913    2.430405623834
RB   -1.407773914801    0.465615882549   -4.344251761388
