17

 N   -0.924760251445   -1.806127593032    2.475049017456
 C    0.285427815399   -1.150921389356    2.479010641424
 N    1.518840229702   -1.749599083818    2.491048926329
 C    2.489263429758   -0.859422942207    2.479176469356
 N    2.286186592345    0.502215191307    2.472341309014
 H    3.090013717596    1.122175731062    2.390353286592
 N    3.814718183995   -1.278097663887    2.400829166121
 H    4.469254389327   -0.746294439487    2.968469942851
 H    3.893523271386   -2.278797807822    2.562412504110
 C    1.026912850028    1.188248894838    2.485295095691
 O    0.999332480923    2.416421979615    2.481206967263
 C   -0.045872275948    0.214555505564    2.491496293631
 N   -1.416945577717    0.400886550877    2.491421108915
 C   -1.910469072228   -0.837716463168    2.481091009250
 H   -2.967966985496   -1.091863085000    2.478144364824
 H   -1.049857247976   -2.812710678264    2.466389466425
RB   -1.407688028206    0.466222030202   -4.408263345676
