17

 N   -0.924856813022   -1.806809079734    2.547016702638
 C    0.285331253822   -1.151602876058    2.550978326606
 N    1.518743668125   -1.750280570520    2.563016611511
 C    2.489166868181   -0.860104428909    2.551144154538
 N    2.286090030768    0.501533704605    2.544308994196
 H    3.089917156019    1.121494244360    2.462320971774
 N    3.814621622418   -1.278779150589    2.472796851303
 H    4.469157827750   -0.746975926189    3.040437628033
 H    3.893426709809   -2.279479294524    2.634380189292
 C    1.026816288451    1.187567408136    2.557262780873
 O    0.999235919346    2.415740492913    2.553174652445
 C   -0.045968837525    0.213874018862    2.563463978813
 N   -1.417042139294    0.400205064175    2.563388794097
 C   -1.910565633805   -0.838397949870    2.553058694432
 H   -2.968063547073   -1.092544571702    2.550112050006
 H   -1.049953809553   -2.813392164966    2.538357151607
RB   -1.407516255014    0.467434325509   -4.536286514250
