17

 N   -0.924953374598   -1.807490566437    2.618984387819
 C    0.285234692246   -1.152284362761    2.622946011787
 N    1.518647106549   -1.750962057223    2.634984296692
 C    2.489070306605   -0.860785915612    2.623111839719
 N    2.285993469192    0.500852217902    2.616276679377
 H    3.089820594443    1.120812757657    2.534288656955
 N    3.814525060842   -1.279460637292    2.544764536484
 H    4.469061266174   -0.747657412892    3.112405313214
 H    3.893330148233   -2.280160781227    2.706347874473
 C    1.026719726875    1.186885921433    2.629230466054
 O    0.999139357770    2.415059006210    2.625142337626
 C   -0.046065399101    0.213192532159    2.635431663994
 N   -1.417138700870    0.399523577472    2.635356479278
 C   -1.910662195381   -0.839079436573    2.625026379613
 H   -2.968160108649   -1.093226058405    2.622079735187
 H   -1.050050371129   -2.814073651669    2.610324836788
RB   -1.407344481822    0.468646620816   -4.664309682825
