17

 N   -0.925049936175   -1.808172053139    2.690952073001
 C    0.285138130669   -1.152965849463    2.694913696969
 N    1.518550544972   -1.751643543925    2.706951981874
 C    2.488973745028   -0.861467402314    2.695079524901
 N    2.285896907615    0.500170731200    2.688244364559
 H    3.089724032866    1.120131270955    2.606256342137
 N    3.814428499265   -1.280142123994    2.616732221666
 H    4.468964704597   -0.748338899594    3.184372998396
 H    3.893233586656   -2.280842267929    2.778315559655
 C    1.026623165298    1.186204434731    2.701198151236
 O    0.999042796193    2.414377519508    2.697110022808
 C   -0.046161960678    0.212511045457    2.707399349176
 N   -1.417235262447    0.398842090770    2.707324164460
 C   -1.910758756958   -0.839760923275    2.696994064795
 H   -2.968256670226   -1.093907545107    2.694047420369
 H   -1.050146932706   -2.814755138371    2.682292521970
RB   -1.407172708630    0.469858916123   -4.792332851399
