17

 N   -0.925098216963   -1.808512796491    2.726935915592
 C    0.285089849881   -1.153306592815    2.730897539560
 N    1.518502264184   -1.751984287277    2.742935824465
 C    2.488925464240   -0.861808145666    2.731063367492
 N    2.285848626827    0.499829987848    2.724228207150
 H    3.089675752078    1.119790527603    2.642240184728
 N    3.814380218477   -1.280482867346    2.652716064257
 H    4.468916423809   -0.748679642946    3.220356840987
 H    3.893185305868   -2.281183011281    2.814299402246
 C    1.026574884510    1.185863691379    2.737181993827
 O    0.998994515405    2.414036776156    2.733093865399
 C   -0.046210241466    0.212170302105    2.743383191767
 N   -1.417283543235    0.398501347418    2.743308007051
 C   -1.910807037746   -0.840101666627    2.732977907386
 H   -2.968304951014   -1.094248288459    2.730031262960
 H   -1.050195213494   -2.815095881723    2.718276364561
RB   -1.407086822034    0.470465063776   -4.856344435686
