17

 N   -0.925339620904   -1.810216513247    2.906855128546
 C    0.284848445940   -1.155010309571    2.910816752514
 N    1.518260860243   -1.753688004033    2.922855037419
 C    2.488684060299   -0.863511862422    2.910982580446
 N    2.285607222886    0.498126271092    2.904147420104
 H    3.089434348137    1.118086810847    2.822159397682
 N    3.814138814536   -1.282186584102    2.832635277211
 H    4.468675019868   -0.750383359702    3.400276053941
 H    3.892943901927   -2.282886728037    2.994218615200
 C    1.026333480569    1.184159974623    2.917101206781
 O    0.998753111464    2.412333059400    2.913013078353
 C   -0.046451645407    0.210466585349    2.923302404721
 N   -1.417524947176    0.396797630662    2.923227220005
 C   -1.911048441687   -0.841805383383    2.912897120340
 H   -2.968546354955   -1.095952005215    2.909950475914
 H   -1.050436617435   -2.816799598479    2.898195577515
RB   -1.406657389054    0.473495802044   -5.176402357123
