17

 N   -0.925532744058   -1.811579486652    3.050790498910
 C    0.284655322786   -1.156373282976    3.054752122878
 N    1.518067737089   -1.755050977438    3.066790407783
 C    2.488490937145   -0.864874835827    3.054917950810
 N    2.285414099732    0.496763297687    3.048082790468
 H    3.089241224983    1.116723837442    2.966094768046
 N    3.813945691382   -1.283549557507    2.976570647575
 H    4.468481896714   -0.751746333107    3.544211424305
 H    3.892750778773   -2.284249701442    3.138153985564
 C    1.026140357415    1.182797001218    3.061036577145
 O    0.998559988310    2.410970085995    3.056948448717
 C   -0.046644768561    0.209103611944    3.067237775085
 N   -1.417718070330    0.395434657257    3.067162590369
 C   -1.911241564841   -0.843168356788    3.056832490704
 H   -2.968739478109   -1.097314978620    3.053885846278
 H   -1.050629740589   -2.818162571884    3.042130947879
RB   -1.406313842671    0.475920392657   -5.432448694272
