17

 N   -0.925581024846   -1.811920230003    3.086774341501
 C    0.284607041998   -1.156714026327    3.090735965469
 N    1.518019456301   -1.755391720789    3.102774250374
 C    2.488442656357   -0.865215579178    3.090901793401
 N    2.285365818944    0.496422554336    3.084066633059
 H    3.089192944195    1.116383094091    3.002078610637
 N    3.813897410594   -1.283890300858    3.012554490166
 H    4.468433615926   -0.752087076458    3.580195266896
 H    3.892702497985   -2.284590444793    3.174137828155
 C    1.026092076627    1.182456257867    3.097020419736
 O    0.998511707522    2.410629342644    3.092932291308
 C   -0.046693049349    0.208762868593    3.103221617676
 N   -1.417766351118    0.395093913906    3.103146432960
 C   -1.911289845629   -0.843509100139    3.092816333295
 H   -2.968787758897   -1.097655721971    3.089869688869
 H   -1.050678021377   -2.818503315235    3.078114790470
RB   -1.406227956075    0.476526540311   -5.496460278559
