17

 N   -0.925677586422   -1.812601716706    3.158742026682
 C    0.284510480422   -1.157395513030    3.162703650650
 N    1.517922894725   -1.756073207492    3.174741935555
 C    2.488346094781   -0.865897065881    3.162869478582
 N    2.285269257368    0.495741067633    3.156034318240
 H    3.089096382619    1.115701607388    3.074046295818
 N    3.813800849018   -1.284571787561    3.084522175347
 H    4.468337054350   -0.752768563161    3.652162952077
 H    3.892605936409   -2.285271931496    3.246105513336
 C    1.025995515051    1.181774771164    3.168988104917
 O    0.998415145946    2.409947855941    3.164899976489
 C   -0.046789610925    0.208081381890    3.175189302857
 N   -1.417862912694    0.394412427203    3.175114118141
 C   -1.911386407205   -0.844190586842    3.164784018476
 H   -2.968884320473   -1.098337208674    3.161837374050
 H   -1.050774582953   -2.819184801938    3.150082475651
RB   -1.406056182883    0.477738835618   -5.624483447134
