17

 N   -0.925725867211   -1.812942460057    3.194725869273
 C    0.284462199633   -1.157736256381    3.198687493241
 N    1.517874613936   -1.756413950843    3.210725778146
 C    2.488297813992   -0.866237809232    3.198853321173
 N    2.285220976579    0.495400324282    3.192018160831
 H    3.089048101830    1.115360864037    3.110030138409
 N    3.813752568229   -1.284912530912    3.120506017938
 H    4.468288773561   -0.753109306512    3.688146794668
 H    3.892557655620   -2.285612674847    3.282089355927
 C    1.025947234262    1.181434027813    3.204971947508
 O    0.998366865157    2.409607112590    3.200883819080
 C   -0.046837891714    0.207740638539    3.211173145448
 N   -1.417911193483    0.394071683852    3.211097960732
 C   -1.911434687994   -0.844531330193    3.200767861067
 H   -2.968932601262   -1.098677952025    3.197821216641
 H   -1.050822863742   -2.819525545289    3.186066318242
RB   -1.405970296287    0.478344983271   -5.688495031421
