17

 N   -0.925774147999   -1.813283203408    3.230709711864
 C    0.284413918845   -1.158076999732    3.234671335832
 N    1.517826333148   -1.756754694194    3.246709620737
 C    2.488249533204   -0.866578552583    3.234837163764
 N    2.285172695791    0.495059580931    3.228002003422
 H    3.088999821042    1.115020120686    3.146013981000
 N    3.813704287441   -1.285253274263    3.156489860529
 H    4.468240492773   -0.753450049863    3.724130637259
 H    3.892509374832   -2.285953418198    3.318073198518
 C    1.025898953474    1.181093284462    3.240955790099
 O    0.998318584369    2.409266369239    3.236867661671
 C   -0.046886172502    0.207399895188    3.247156988039
 N   -1.417959474271    0.393730940501    3.247081803323
 C   -1.911482968782   -0.844872073544    3.236751703658
 H   -2.968980882050   -1.099018695376    3.233805059232
 H   -1.050871144530   -2.819866288640    3.222050160833
RB   -1.405884409691    0.478951130925   -5.752506615708
