17

 N   -0.925822428787   -1.813623946759    3.266693554455
 C    0.284365638057   -1.158417743083    3.270655178423
 N    1.517778052360   -1.757095437545    3.282693463328
 C    2.488201252416   -0.866919295934    3.270821006355
 N    2.285124415003    0.494718837580    3.263985846013
 H    3.088951540254    1.114679377335    3.181997823591
 N    3.813656006653   -1.285594017614    3.192473703120
 H    4.468192211985   -0.753790793214    3.760114479850
 H    3.892461094044   -2.286294161549    3.354057041109
 C    1.025850672686    1.180752541111    3.276939632690
 O    0.998270303581    2.408925625888    3.272851504262
 C   -0.046934453290    0.207059151837    3.283140830630
 N   -1.418007755059    0.393390197150    3.283065645914
 C   -1.911531249570   -0.845212816895    3.272735546249
 H   -2.969029162838   -1.099359438727    3.269788901823
 H   -1.050919425318   -2.820207031991    3.258034003424
RB   -1.405798523095    0.479557278578   -5.816518199995
