17

 N   -0.925870709576   -1.813964690111    3.302677397046
 C    0.284317357268   -1.158758486435    3.306639021014
 N    1.517729771571   -1.757436180897    3.318677305919
 C    2.488152971627   -0.867260039286    3.306804848946
 N    2.285076134214    0.494378094228    3.299969688604
 H    3.088903259465    1.114338633983    3.217981666182
 N    3.813607725864   -1.285934760966    3.228457545711
 H    4.468143931196   -0.754131536566    3.796098322441
 H    3.892412813255   -2.286634904901    3.390040883700
 C    1.025802391897    1.180411797759    3.312923475281
 O    0.998222022792    2.408584882536    3.308835346853
 C   -0.046982734079    0.206718408485    3.319124673221
 N   -1.418056035848    0.393049453798    3.319049488505
 C   -1.911579530359   -0.845553560247    3.308719388840
 H   -2.969077443627   -1.099700182079    3.305772744414
 H   -1.050967706107   -2.820547775343    3.294017846015
RB   -1.405712636499    0.480163426232   -5.880529784283
