17

 N   -0.926063832729   -1.815327663516    3.446612767409
 C    0.284124234115   -1.160121459840    3.450574391377
 N    1.517536648418   -1.758799154302    3.462612676282
 C    2.487959848474   -0.868623012691    3.450740219309
 N    2.284883011061    0.493015120823    3.443905058967
 H    3.088710136312    1.112975660578    3.361917036545
 N    3.813414602711   -1.287297734371    3.372392916074
 H    4.467950808043   -0.755494509971    3.940033692804
 H    3.892219690102   -2.287997878306    3.533976254063
 C    1.025609268744    1.179048824354    3.456858845644
 O    0.998028899639    2.407221909131    3.452770717216
 C   -0.047175857232    0.205355435080    3.463060043584
 N   -1.418249159001    0.391686480393    3.462984858868
 C   -1.911772653512   -0.846916533652    3.452654759203
 H   -2.969270566780   -1.101063155484    3.449708114777
 H   -1.051160829260   -2.821910748748    3.437953216378
RB   -1.405369090115    0.482588016845   -6.136576121432
