17

 N   -0.926208675094   -1.816349893569    3.554564295182
 C    0.283979391750   -1.161143689893    3.558525919150
 N    1.517391806053   -1.759821384355    3.570564204055
 C    2.487815006109   -0.869645242744    3.558691747082
 N    2.284738168696    0.491992890770    3.551856586740
 H    3.088565293947    1.111953430525    3.469868564318
 N    3.813269760346   -1.288319964424    3.480344443847
 H    4.467805965678   -0.756516740024    4.047985220577
 H    3.892074847737   -2.289020108359    3.641927781836
 C    1.025464426379    1.178026594301    3.564810373417
 O    0.997884057274    2.406199679078    3.560722244989
 C   -0.047320699597    0.204333205027    3.571011571357
 N   -1.418394001366    0.390664250340    3.570936386641
 C   -1.911917495877   -0.847938763705    3.560606286976
 H   -2.969415409145   -1.102085385537    3.557659642550
 H   -1.051305671625   -2.822932978801    3.545904744151
RB   -1.405111430327    0.484406459806   -6.328610874293
