10

 H    1.416843657808    1.311545659522   -0.901476000000
 H    0.214629657808    2.286792659522    0.000000000000
 H    1.416843657808    1.311545659522    0.901476000000
 C    0.785994657808    1.347073659522    0.000000000000
 S   -0.411880342192   -0.025464340478    0.000000000000
 C    0.785994657808   -1.398002340478    0.000000000000
 H    1.416843657808   -1.362474340478    0.901476000000
 H    0.214629657808   -2.337721340478    0.000000000000
 H    1.416843657808   -1.362474340478   -0.901476000000
LI   -1.687505512570    0.225095881220    0.000000000000
