10

 H    1.426816065743    1.309586864101   -0.901476000000
 H    0.224602065743    2.284833864101    0.000000000000
 H    1.426816065743    1.309586864101    0.901476000000
 C    0.795967065743    1.345114864101    0.000000000000
 S   -0.401907934257   -0.027423135899    0.000000000000
 C    0.795967065743   -1.399961135899    0.000000000000
 H    1.426816065743   -1.364433135899    0.901476000000
 H    0.224602065743   -2.339680135899    0.000000000000
 H    1.426816065743   -1.364433135899   -0.901476000000
LI   -1.775658117741    0.242410949006    0.000000000000
