10

 H    1.446760881614    1.305669273258   -0.901476000000
 H    0.244546881614    2.280916273258    0.000000000000
 H    1.446760881614    1.305669273258    0.901476000000
 C    0.815911881614    1.341197273258    0.000000000000
 S   -0.381963118386   -0.031340726742    0.000000000000
 C    0.815911881614   -1.403878726742    0.000000000000
 H    1.446760881614   -1.368350726742    0.901476000000
 H    0.244546881614   -2.343597726742    0.000000000000
 H    1.446760881614   -1.368350726742   -0.901476000000
LI   -1.951963328083    0.277041084578    0.000000000000
