10

 H    1.466705697484    1.301751682416   -0.901476000000
 H    0.264491697484    2.276998682416    0.000000000000
 H    1.466705697484    1.301751682416    0.901476000000
 C    0.835856697484    1.337279682416    0.000000000000
 S   -0.362018302516   -0.035258317584    0.000000000000
 C    0.835856697484   -1.407796317584    0.000000000000
 H    1.466705697484   -1.372268317584    0.901476000000
 H    0.264491697484   -2.347515317584    0.000000000000
 H    1.466705697484   -1.372268317584   -0.901476000000
LI   -2.128268538424    0.311671220150    0.000000000000
