10

 H    2.284443148174    1.141130457864   -0.901476000000
 H    1.082229148174    2.116377457864    0.000000000000
 H    2.284443148174    1.141130457864    0.901476000000
 C    1.653594148174    1.176658457864    0.000000000000
 S    0.455719148174   -0.195879542136    0.000000000000
 C    1.653594148174   -1.568417542136    0.000000000000
 H    2.284443148174   -1.532889542136    0.901476000000
 H    1.082229148174   -2.508136542136    0.000000000000
 H    2.284443148174   -1.532889542136   -0.901476000000
LI   -9.356782162430    1.731506778612    0.000000000000
