10

 H    1.496622921290    1.295875296151   -0.901476000000
 H    0.294408921290    2.271122296151    0.000000000000
 H    1.496622921290    1.295875296151    0.901476000000
 C    0.865773921290    1.331403296151    0.000000000000
 S   -0.332101078710   -0.041134703849    0.000000000000
 C    0.865773921290   -1.413672703849    0.000000000000
 H    1.496622921290   -1.378144703849    0.901476000000
 H    0.294408921290   -2.353391703849    0.000000000000
 H    1.496622921290   -1.378144703849   -0.901476000000
LI   -2.392726353937    0.363616423509    0.000000000000
