10

 H    1.506595329225    1.293916500730   -0.901476000000
 H    0.304381329225    2.269163500730    0.000000000000
 H    1.506595329225    1.293916500730    0.901476000000
 C    0.875746329225    1.329444500730    0.000000000000
 S   -0.322128670775   -0.043093499270    0.000000000000
 C    0.875746329225   -1.415631499270    0.000000000000
 H    1.506595329225   -1.380103499270    0.901476000000
 H    0.304381329225   -2.355350499270    0.000000000000
 H    1.506595329225   -1.380103499270   -0.901476000000
LI   -2.480878959108    0.380931491295    0.000000000000
