10

 H    1.516567737160    1.291957705309   -0.901476000000
 H    0.314353737160    2.267204705309    0.000000000000
 H    1.516567737160    1.291957705309    0.901476000000
 C    0.885718737160    1.327485705309    0.000000000000
 S   -0.312156262840   -0.045052294691    0.000000000000
 C    0.885718737160   -1.417590294691    0.000000000000
 H    1.516567737160   -1.382062294691    0.901476000000
 H    0.314353737160   -2.357309294691    0.000000000000
 H    1.516567737160   -1.382062294691   -0.901476000000
LI   -2.569031564278    0.398246559081    0.000000000000
