10

 H    1.526540145096    1.289998909887   -0.901476000000
 H    0.324326145096    2.265245909887    0.000000000000
 H    1.526540145096    1.289998909887    0.901476000000
 C    0.895691145096    1.325526909887    0.000000000000
 S   -0.302183854904   -0.047011090113    0.000000000000
 C    0.895691145096   -1.419549090113    0.000000000000
 H    1.526540145096   -1.384021090113    0.901476000000
 H    0.324326145096   -2.359268090113    0.000000000000
 H    1.526540145096   -1.384021090113   -0.901476000000
LI   -2.657184169449    0.415561626867    0.000000000000
