10

 H    1.596347000642    1.276287341938   -0.901476000000
 H    0.394133000642    2.251534341938    0.000000000000
 H    1.596347000642    1.276287341938    0.901476000000
 C    0.965498000642    1.311815341938    0.000000000000
 S   -0.232376999358   -0.060722658062    0.000000000000
 C    0.965498000642   -1.433260658062    0.000000000000
 H    1.596347000642   -1.397732658062    0.901476000000
 H    0.394133000642   -2.372979658062    0.000000000000
 H    1.596347000642   -1.397732658062   -0.901476000000
LI   -3.274252405645    0.536767101370    0.000000000000
