10

 H    1.616291816513    1.272369751095   -0.901476000000
 H    0.414077816513    2.247616751095    0.000000000000
 H    1.616291816513    1.272369751095    0.901476000000
 C    0.985442816513    1.307897751095    0.000000000000
 S   -0.212432183487   -0.064640248905    0.000000000000
 C    0.985442816513   -1.437178248905    0.000000000000
 H    1.616291816513   -1.401650248905    0.901476000000
 H    0.414077816513   -2.376897248905    0.000000000000
 H    1.616291816513   -1.401650248905   -0.901476000000
LI   -3.450557615986    0.571397236942    0.000000000000
