10

 H    1.626264224448    1.270410955674   -0.901476000000
 H    0.424050224448    2.245657955674    0.000000000000
 H    1.626264224448    1.270410955674    0.901476000000
 C    0.995415224448    1.305938955674    0.000000000000
 S   -0.202459775552   -0.066599044326    0.000000000000
 C    0.995415224448   -1.439137044326    0.000000000000
 H    1.626264224448   -1.403609044326    0.901476000000
 H    0.424050224448   -2.378856044326    0.000000000000
 H    1.626264224448   -1.403609044326   -0.901476000000
LI   -3.538710221157    0.588712304728    0.000000000000
