10

 H    1.636236632383    1.268452160252   -0.901476000000
 H    0.434022632383    2.243699160252    0.000000000000
 H    1.636236632383    1.268452160252    0.901476000000
 C    1.005387632383    1.303980160252    0.000000000000
 S   -0.192487367617   -0.068557839748    0.000000000000
 C    1.005387632383   -1.441095839748    0.000000000000
 H    1.636236632383   -1.405567839748    0.901476000000
 H    0.434022632383   -2.380814839748    0.000000000000
 H    1.636236632383   -1.405567839748   -0.901476000000
LI   -3.626862826328    0.606027372514    0.000000000000
