10

 H    1.666153856189    1.262575773988   -0.901476000000
 H    0.463939856189    2.237822773988    0.000000000000
 H    1.666153856189    1.262575773988    0.901476000000
 C    1.035304856189    1.298103773988    0.000000000000
 S   -0.162570143811   -0.074434226012    0.000000000000
 C    1.035304856189   -1.446972226012    0.000000000000
 H    1.666153856189   -1.411444226012    0.901476000000
 H    0.463939856189   -2.386691226012    0.000000000000
 H    1.666153856189   -1.411444226012   -0.901476000000
LI   -3.891320641840    0.657972575873    0.000000000000
