10

 H    1.706043487930    1.254740592303   -0.901476000000
 H    0.503829487930    2.229987592303    0.000000000000
 H    1.706043487930    1.254740592303    0.901476000000
 C    1.075194487930    1.290268592303    0.000000000000
 S   -0.122680512070   -0.082269407697    0.000000000000
 C    1.075194487930   -1.454807407697    0.000000000000
 H    1.706043487930   -1.419279407697    0.901476000000
 H    0.503829487930   -2.394526407697    0.000000000000
 H    1.706043487930   -1.419279407697   -0.901476000000
LI   -4.243931062524    0.727232847017    0.000000000000
