10

 H    1.735960711736    1.248864206039   -0.901476000000
 H    0.533746711736    2.224111206039    0.000000000000
 H    1.735960711736    1.248864206039    0.901476000000
 C    1.105111711736    1.284392206039    0.000000000000
 S   -0.092763288264   -0.088145793961    0.000000000000
 C    1.105111711736   -1.460683793961    0.000000000000
 H    1.735960711736   -1.425155793961    0.901476000000
 H    0.533746711736   -2.400402793961    0.000000000000
 H    1.735960711736   -1.425155793961   -0.901476000000
LI   -4.508388878036    0.779178050376    0.000000000000
