10

 H    1.805767567282    1.235152638089   -0.901476000000
 H    0.603553567282    2.210399638089    0.000000000000
 H    1.805767567282    1.235152638089    0.901476000000
 C    1.174918567282    1.270680638089    0.000000000000
 S   -0.022956432718   -0.101857361911    0.000000000000
 C    1.174918567282   -1.474395361911    0.000000000000
 H    1.805767567282   -1.438867361911    0.901476000000
 H    0.603553567282   -2.414114361911    0.000000000000
 H    1.805767567282   -1.438867361911   -0.901476000000
LI   -5.125457114231    0.900383524878    0.000000000000
