10

 H    1.815739975217    1.233193842668   -0.901476000000
 H    0.613525975217    2.208440842668    0.000000000000
 H    1.815739975217    1.233193842668    0.901476000000
 C    1.184890975217    1.268721842668    0.000000000000
 S   -0.012984024783   -0.103816157332    0.000000000000
 C    1.184890975217   -1.476354157332    0.000000000000
 H    1.815739975217   -1.440826157332    0.901476000000
 H    0.613525975217   -2.416073157332    0.000000000000
 H    1.815739975217   -1.440826157332   -0.901476000000
LI   -5.213609719402    0.917698592665    0.000000000000
