10

 H    1.835684791088    1.229276251825   -0.901476000000
 H    0.633470791088    2.204523251825    0.000000000000
 H    1.835684791088    1.229276251825    0.901476000000
 C    1.204835791088    1.264804251825    0.000000000000
 S    0.006960791088   -0.107733748175    0.000000000000
 C    1.204835791088   -1.480271748175    0.000000000000
 H    1.835684791088   -1.444743748175    0.901476000000
 H    0.633470791088   -2.419990748175    0.000000000000
 H    1.835684791088   -1.444743748175   -0.901476000000
LI   -5.389914929744    0.952328728237    0.000000000000
