10

 H    1.855629606958    1.225358660983   -0.901476000000
 H    0.653415606958    2.200605660983    0.000000000000
 H    1.855629606958    1.225358660983    0.901476000000
 C    1.224780606958    1.260886660983    0.000000000000
 S    0.026905606958   -0.111651339017    0.000000000000
 C    1.224780606958   -1.484189339017    0.000000000000
 H    1.855629606958   -1.448661339017    0.901476000000
 H    0.653415606958   -2.423908339017    0.000000000000
 H    1.855629606958   -1.448661339017   -0.901476000000
LI   -5.566220140085    0.986958863809    0.000000000000
