10

 H    1.865602014894    1.223399865561   -0.901476000000
 H    0.663388014894    2.198646865561    0.000000000000
 H    1.865602014894    1.223399865561    0.901476000000
 C    1.234753014894    1.258927865561    0.000000000000
 S    0.036878014894   -0.113610134439    0.000000000000
 C    1.234753014894   -1.486148134439    0.000000000000
 H    1.865602014894   -1.450620134439    0.901476000000
 H    0.663388014894   -2.425867134439    0.000000000000
 H    1.865602014894   -1.450620134439   -0.901476000000
LI   -5.654372745256    1.004273931595    0.000000000000
