10

 H    1.895519238699    1.217523479297   -0.901476000000
 H    0.693305238699    2.192770479297    0.000000000000
 H    1.895519238699    1.217523479297    0.901476000000
 C    1.264670238699    1.253051479297    0.000000000000
 S    0.066795238699   -0.119486520703    0.000000000000
 C    1.264670238699   -1.492024520703    0.000000000000
 H    1.895519238699   -1.456496520703    0.901476000000
 H    0.693305238699   -2.431743520703    0.000000000000
 H    1.895519238699   -1.456496520703   -0.901476000000
LI   -5.918830560769    1.056219134954    0.000000000000
