10

 H    1.905491646635    1.215564683876   -0.901476000000
 H    0.703277646635    2.190811683876    0.000000000000
 H    1.905491646635    1.215564683876    0.901476000000
 C    1.274642646635    1.251092683876    0.000000000000
 S    0.076767646635   -0.121445316124    0.000000000000
 C    1.274642646635   -1.493983316124    0.000000000000
 H    1.905491646635   -1.458455316124    0.901476000000
 H    0.703277646635   -2.433702316124    0.000000000000
 H    1.905491646635   -1.458455316124   -0.901476000000
LI   -6.006983165939    1.073534202740    0.000000000000
