10

 H    1.945381278376    1.207729502190   -0.901476000000
 H    0.743167278376    2.182976502190    0.000000000000
 H    1.945381278376    1.207729502190    0.901476000000
 C    1.314532278376    1.243257502190    0.000000000000
 S    0.116657278376   -0.129280497810    0.000000000000
 C    1.314532278376   -1.501818497810    0.000000000000
 H    1.945381278376   -1.466290497810    0.901476000000
 H    0.743167278376   -2.441537497810    0.000000000000
 H    1.945381278376   -1.466290497810   -0.901476000000
LI   -6.359593586623    1.142794473884    0.000000000000
