10

 H    1.965326094246    1.203811911348   -0.901476000000
 H    0.763112094246    2.179058911348    0.000000000000
 H    1.965326094246    1.203811911348    0.901476000000
 C    1.334477094246    1.239339911348    0.000000000000
 S    0.136602094246   -0.133198088652    0.000000000000
 C    1.334477094246   -1.505736088652    0.000000000000
 H    1.965326094246   -1.470208088652    0.901476000000
 H    0.763112094246   -2.445455088652    0.000000000000
 H    1.965326094246   -1.470208088652   -0.901476000000
LI   -6.535898796964    1.177424609456    0.000000000000
