10

 H    2.015188133922    1.194017934241   -0.901476000000
 H    0.812974133922    2.169264934241    0.000000000000
 H    2.015188133922    1.194017934241    0.901476000000
 C    1.384339133922    1.229545934241    0.000000000000
 S    0.186464133922   -0.142992065759    0.000000000000
 C    1.384339133922   -1.515530065759    0.000000000000
 H    2.015188133922   -1.480002065759    0.901476000000
 H    0.812974133922   -2.455249065759    0.000000000000
 H    2.015188133922   -1.480002065759   -0.901476000000
LI   -6.976661822818    1.263999948387    0.000000000000
