10

 H    2.035132949793    1.190100343398   -0.901476000000
 H    0.832918949793    2.165347343398    0.000000000000
 H    2.035132949793    1.190100343398    0.901476000000
 C    1.404283949793    1.225628343398    0.000000000000
 S    0.206408949793   -0.146909656602    0.000000000000
 C    1.404283949793   -1.519447656602    0.000000000000
 H    2.035132949793   -1.483919656602    0.901476000000
 H    0.832918949793   -2.459166656602    0.000000000000
 H    2.035132949793   -1.483919656602   -0.901476000000
LI   -7.152967033160    1.298630083959    0.000000000000
