10

 H    2.045105357728    1.188141547977   -0.901476000000
 H    0.842891357728    2.163388547977    0.000000000000
 H    2.045105357728    1.188141547977    0.901476000000
 C    1.414256357728    1.223669547977    0.000000000000
 S    0.216381357728   -0.148868452023    0.000000000000
 C    1.414256357728   -1.521406452023    0.000000000000
 H    2.045105357728   -1.485878452023    0.901476000000
 H    0.842891357728   -2.461125452023    0.000000000000
 H    2.045105357728   -1.485878452023   -0.901476000000
LI   -7.241119638331    1.315945151745    0.000000000000
