10

 H    2.065050173598    1.184223957134   -0.901476000000
 H    0.862836173598    2.159470957134    0.000000000000
 H    2.065050173598    1.184223957134    0.901476000000
 C    1.434201173598    1.219751957134    0.000000000000
 S    0.236326173598   -0.152786042866    0.000000000000
 C    1.434201173598   -1.525324042866    0.000000000000
 H    2.065050173598   -1.489796042866    0.901476000000
 H    0.862836173598   -2.465043042866    0.000000000000
 H    2.065050173598   -1.489796042866   -0.901476000000
LI   -7.417424848672    1.350575287318    0.000000000000
