10

 H    2.094967397404    1.178347570870   -0.901476000000
 H    0.892753397404    2.153594570870    0.000000000000
 H    2.094967397404    1.178347570870    0.901476000000
 C    1.464118397404    1.213875570870    0.000000000000
 S    0.266243397404   -0.158662429130    0.000000000000
 C    1.464118397404   -1.531200429130    0.000000000000
 H    2.094967397404   -1.495672429130    0.901476000000
 H    0.892753397404   -2.470919429130    0.000000000000
 H    2.094967397404   -1.495672429130   -0.901476000000
LI   -7.681882664185    1.402520490676    0.000000000000
