10

 H    2.124884621210    1.172471184606   -0.901476000000
 H    0.922670621210    2.147718184606    0.000000000000
 H    2.124884621210    1.172471184606    0.901476000000
 C    1.494035621210    1.207999184606    0.000000000000
 S    0.296160621210   -0.164538815394    0.000000000000
 C    1.494035621210   -1.537076815394    0.000000000000
 H    2.124884621210   -1.501548815394    0.901476000000
 H    0.922670621210   -2.476795815394    0.000000000000
 H    2.124884621210   -1.501548815394   -0.901476000000
LI   -7.946340479697    1.454465694034    0.000000000000
