10

 H    2.134857029145    1.170512389184   -0.901476000000
 H    0.932643029145    2.145759389184    0.000000000000
 H    2.134857029145    1.170512389184    0.901476000000
 C    1.504008029145    1.206040389184    0.000000000000
 S    0.306133029145   -0.166497610816    0.000000000000
 C    1.504008029145   -1.539035610816    0.000000000000
 H    2.134857029145   -1.503507610816    0.901476000000
 H    0.932643029145   -2.478754610816    0.000000000000
 H    2.134857029145   -1.503507610816   -0.901476000000
LI   -8.034493084868    1.471780761820    0.000000000000
