10

 H    2.144829437080    1.168553593763   -0.901476000000
 H    0.942615437080    2.143800593763    0.000000000000
 H    2.144829437080    1.168553593763    0.901476000000
 C    1.513980437080    1.204081593763    0.000000000000
 S    0.316105437080   -0.168456406237    0.000000000000
 C    1.513980437080   -1.540994406237    0.000000000000
 H    2.144829437080   -1.505466406237    0.901476000000
 H    0.942615437080   -2.480713406237    0.000000000000
 H    2.144829437080   -1.505466406237   -0.901476000000
LI   -8.122645690039    1.489095829607    0.000000000000
