10

 H    2.154801845015    1.166594798342   -0.901476000000
 H    0.952587845015    2.141841798342    0.000000000000
 H    2.154801845015    1.166594798342    0.901476000000
 C    1.523952845015    1.202122798342    0.000000000000
 S    0.326077845015   -0.170415201658    0.000000000000
 C    1.523952845015   -1.542953201658    0.000000000000
 H    2.154801845015   -1.507425201658    0.901476000000
 H    0.952587845015   -2.482672201658    0.000000000000
 H    2.154801845015   -1.507425201658   -0.901476000000
LI   -8.210798295209    1.506410897393    0.000000000000
