10

 H    2.184719068821    1.160718412078   -0.901476000000
 H    0.982505068821    2.135965412078    0.000000000000
 H    2.184719068821    1.160718412078    0.901476000000
 C    1.553870068821    1.196246412078    0.000000000000
 S    0.355995068821   -0.176291587922    0.000000000000
 C    1.553870068821   -1.548829587922    0.000000000000
 H    2.184719068821   -1.513301587922    0.901476000000
 H    0.982505068821   -2.488548587922    0.000000000000
 H    2.184719068821   -1.513301587922   -0.901476000000
LI   -8.475256110722    1.558356100751    0.000000000000
