10

 H    2.214636292627    1.154842025814   -0.901476000000
 H    1.012422292627    2.130089025814    0.000000000000
 H    2.214636292627    1.154842025814    0.901476000000
 C    1.583787292627    1.190370025814    0.000000000000
 S    0.385912292627   -0.182167974186    0.000000000000
 C    1.583787292627   -1.554705974186    0.000000000000
 H    2.214636292627   -1.519177974186    0.901476000000
 H    1.012422292627   -2.494424974186    0.000000000000
 H    2.214636292627   -1.519177974186   -0.901476000000
LI   -8.739713926234    1.610301304109    0.000000000000
