10

 H    2.254525924368    1.147006844128   -0.901476000000
 H    1.052311924368    2.122253844128    0.000000000000
 H    2.254525924368    1.147006844128    0.901476000000
 C    1.623676924368    1.182534844128    0.000000000000
 S    0.425801924368   -0.190003155872    0.000000000000
 C    1.623676924368   -1.562541155872    0.000000000000
 H    2.254525924368   -1.527013155872    0.901476000000
 H    1.052311924368   -2.502260155872    0.000000000000
 H    2.254525924368   -1.527013155872   -0.901476000000
LI   -9.092324346917    1.679561575254    0.000000000000
