11

 H   -2.368863145615   -0.625366720922    0.587302776045
 H   -2.485897251005   -1.375465392646   -1.039765479009
 H   -2.368983516028    0.410433185037   -0.896278740296
 C   -2.048941783106   -0.547448231490   -0.461698196684
 S   -0.240041555088   -0.735472694607   -0.593117958192
 S    0.250455960229    0.961949699577    0.591941044281
 C    2.059356185441    0.773786555174    0.460719958423
 H    2.379279264280   -0.184105892840    0.895363875464
 H    2.496311668891    1.601789689029    1.038807361790
 H    2.379396272683    0.851649563434   -0.588248802284
LI   -0.069759188100   -1.516710477344    0.007441316416
