11

 H   -2.370045935458   -0.619940204185    0.583131261268
 H   -2.487080040848   -1.370038875909   -1.043936993786
 H   -2.370166305871    0.415859701774   -0.900450255073
 C   -2.050124572949   -0.542021714753   -0.465869711461
 S   -0.241224344931   -0.730046177870   -0.597289472969
 S    0.249273170386    0.967376216314    0.587769529504
 C    2.058173395598    0.779213071911    0.456548443646
 H    2.378096474437   -0.178679376103    0.891192360687
 H    2.495128879048    1.607216205766    1.034635847013
 H    2.378213482840    0.857076080171   -0.592420317061
LI   -0.053913741244   -1.589407738881    0.063325729100
