11

 H   -2.371228725301   -0.614513687449    0.578959746491
 H   -2.488262830691   -1.364612359173   -1.048108508563
 H   -2.371349095714    0.421286218510   -0.904621769850
 C   -2.051307362792   -0.536595198017   -0.470041226238
 S   -0.242407134774   -0.724619661134   -0.601460987746
 S    0.248090380543    0.972802733050    0.583598014727
 C    2.056990605755    0.784639588647    0.452376928869
 H    2.376913684594   -0.173252859367    0.887020845910
 H    2.493946089205    1.612642722502    1.030464332236
 H    2.377030692997    0.862502596907   -0.596591831838
LI   -0.038068294389   -1.662105000418    0.119210141784
