11

 H   -2.372411515144   -0.609087170712    0.574788231714
 H   -2.489445620534   -1.359185842436   -1.052280023340
 H   -2.372531885557    0.426712735247   -0.908793284627
 C   -2.052490152635   -0.531168681280   -0.474212741015
 S   -0.243589924617   -0.719193144397   -0.605632502523
 S    0.246907590700    0.978229249787    0.579426499950
 C    2.055807815912    0.790066105384    0.448205414092
 H    2.375730894751   -0.167826342630    0.882849331133
 H    2.492763299362    1.618069239239    1.026292817459
 H    2.375847903154    0.867929113644   -0.600763346615
LI   -0.022222847533   -1.734802261955    0.175094554468
