11

 H   -2.374777094830   -0.598234137239    0.566445202161
 H   -2.491811200220   -1.348332808963   -1.060623052893
 H   -2.374897465243    0.437565768720   -0.917136314180
 C   -2.054855732321   -0.520315647807   -0.482555770568
 S   -0.245955504303   -0.708340110924   -0.613975532076
 S    0.244542011014    0.989082283260    0.571083470397
 C    2.053442236226    0.800919138857    0.439862384539
 H    2.373365315065   -0.156973309157    0.874506301580
 H    2.490397719676    1.628922272712    1.017949787906
 H    2.373482323468    0.878782147117   -0.609106376168
LI    0.009468046179   -1.880196785029    0.286863379836
