11

 H   -2.381873833888   -0.565675036819    0.541416113499
 H   -2.498907939278   -1.315773708543   -1.085652141555
 H   -2.381994204301    0.470124869140   -0.942165402842
 C   -2.061952471379   -0.487756547387   -0.507584859230
 S   -0.253052243361   -0.675781010504   -0.639004620738
 S    0.237445271956    1.021641383680    0.546054381735
 C    2.046345497168    0.833478239277    0.414833295877
 H    2.366268576007   -0.124414208737    0.849477212918
 H    2.483300980618    1.661481373132    0.992920699244
 H    2.366385584410    0.911341247537   -0.634135464830
LI    0.104540727313   -2.316380354251    0.622169855939
