11

 H   -2.385422203417   -0.549395486609    0.528901569168
 H   -2.502456308807   -1.299494158333   -1.098166685886
 H   -2.385542573830    0.486404419350   -0.954679947173
 C   -2.065500840908   -0.471476997177   -0.520099403561
 S   -0.256600612890   -0.659501460294   -0.651519165069
 S    0.233896902427    1.037920933890    0.533539837404
 C    2.042797127639    0.849757789487    0.402318751546
 H    2.362720206478   -0.108134658527    0.836962668587
 H    2.479752611089    1.677760923342    0.980406154913
 H    2.362837214881    0.927620797747   -0.646650009161
LI    0.152077067880   -2.534472138862    0.789823093990
