11

 H   -2.390153362789   -0.527689419662    0.512215510060
 H   -2.507187468179   -1.277788091386   -1.114852744994
 H   -2.390273733202    0.508110486297   -0.971366006281
 C   -2.070232000280   -0.449770930230   -0.536785462669
 S   -0.261331772262   -0.637795393347   -0.668205224177
 S    0.229165743055    1.059627000837    0.516853778296
 C    2.038065968267    0.871463856434    0.385632692438
 H    2.357989047106   -0.086428591580    0.820276609479
 H    2.475021451717    1.699466990289    0.963720095805
 H    2.358106055509    0.949326864694   -0.663336068269
LI    0.215458855303   -2.825261185010    1.013360744726
