11

 H   -2.391336152632   -0.522262902926    0.508043995283
 H   -2.508370258022   -1.272361574650   -1.119024259771
 H   -2.391456523045    0.513537003033   -0.975537521058
 C   -2.071414790123   -0.444344413494   -0.540956977446
 S   -0.262514562105   -0.632368876611   -0.672376738954
 S    0.227982953212    1.065053517573    0.512682263519
 C    2.036883178424    0.876890373170    0.381461177661
 H    2.356806257263   -0.081002074844    0.816105094702
 H    2.473838661874    1.704893507025    0.959548581028
 H    2.356923265666    0.954753381430   -0.667507583046
LI    0.231304302159   -2.897958446547    1.069245157409
