11

 H   -2.392518942475   -0.516836386189    0.503872480506
 H   -2.509553047865   -1.266935057913   -1.123195774548
 H   -2.392639312888    0.518963519770   -0.979709035835
 C   -2.072597579966   -0.438917896757   -0.545128492223
 S   -0.263697351948   -0.626942359874   -0.676548253731
 S    0.226800163369    1.070480034310    0.508510748742
 C    2.035700388581    0.882316889907    0.377289662884
 H    2.355623467420   -0.075575558107    0.811933579925
 H    2.472655872031    1.710320023762    0.955377066251
 H    2.355740475823    0.960179898167   -0.671679097823
LI    0.247149749014   -2.970655708084    1.125129570093
