11

 H   -2.398432891690   -0.489703802506    0.483014906621
 H   -2.515466997080   -1.239802474230   -1.144053348433
 H   -2.398553262103    0.546096103453   -1.000566609720
 C   -2.078511529181   -0.411785313074   -0.565986066108
 S   -0.269611301163   -0.599809776191   -0.697405827616
 S    0.220886214154    1.097612617993    0.487653174857
 C    2.029786439366    0.909449473590    0.356432088999
 H    2.349709518205   -0.048442974424    0.791076006040
 H    2.466741922816    1.737452607445    0.934519492366
 H    2.349826526608    0.987312481850   -0.692536671708
LI    0.326376983293   -3.334142015769    1.404551633513
