11

 H   -2.399615681533   -0.484277285769    0.478843391844
 H   -2.516649786923   -1.234375957493   -1.148224863210
 H   -2.399736051946    0.551522620190   -1.004738124497
 C   -2.079694319024   -0.406358796337   -0.570157580885
 S   -0.270794091006   -0.594383259454   -0.701577342393
 S    0.219703424311    1.103039134730    0.483481660080
 C    2.028603649523    0.914875990327    0.352260574222
 H    2.348526728362   -0.043016457687    0.786904491263
 H    2.465559132973    1.742879124182    0.930347977589
 H    2.348643736765    0.992738998587   -0.696708186485
LI    0.342222430149   -3.406839277306    1.460436046196
