11

 H   -2.403164051063   -0.467997735559    0.466328847514
 H   -2.520198156453   -1.218096407283   -1.160739407540
 H   -2.403284421476    0.567802170400   -1.017252668827
 C   -2.083242688554   -0.390079246127   -0.582672125215
 S   -0.274342460536   -0.578103709244   -0.714091886723
 S    0.216155054781    1.119318684940    0.470967115750
 C    2.025055279993    0.931155540537    0.339746029892
 H    2.344978358832   -0.026736907477    0.774389946933
 H    2.462010763443    1.759158674392    0.917833433259
 H    2.345095367235    1.009018548797   -0.709222730815
LI    0.389758770716   -3.624931061918    1.628089284248
