11

 H   -2.412626369807   -0.424585601666    0.432956729298
 H   -2.529660475197   -1.174684273390   -1.194111525756
 H   -2.412746740220    0.611214304293   -1.050624787043
 C   -2.092705007298   -0.346667112234   -0.616044243431
 S   -0.283804779280   -0.534691575351   -0.747464004939
 S    0.206692736037    1.162730818833    0.437594997534
 C    2.015592961249    0.974567674430    0.306373911676
 H    2.335516040088    0.016675226416    0.741017828717
 H    2.452548444699    1.802570808285    0.884461315043
 H    2.335633048491    1.052430682690   -0.742594849031
LI    0.516522345562   -4.206509154214    2.075164585719
