11

 H   -2.414991949493   -0.413732568193    0.424613699744
 H   -2.532026054883   -1.163831239917   -1.202454555310
 H   -2.415112319906    0.622067337766   -1.058967816597
 C   -2.095070586984   -0.335814078761   -0.624387272985
 S   -0.286170358966   -0.523838541878   -0.755807034493
 S    0.204327156351    1.173583852306    0.429251967980
 C    2.013227381563    0.985420707903    0.298030882122
 H    2.333150460402    0.027528259889    0.732674799163
 H    2.450182865013    1.813423841758    0.876118285489
 H    2.333267468805    1.063283716163   -0.750937878585
LI    0.548213239273   -4.351903677288    2.186933411086
