11

 H   -2.419723108865   -0.392026501246    0.407927640636
 H   -2.536757214255   -1.142125172970   -1.219140614418
 H   -2.419843479278    0.643773404713   -1.075653875705
 C   -2.099801746356   -0.314108011814   -0.641073332093
 S   -0.290901518338   -0.502132474931   -0.772493093601
 S    0.199595996979    1.195289919253    0.412565908872
 C    2.008496222191    1.007126774850    0.281344823014
 H    2.328419301030    0.049234326836    0.715988740055
 H    2.445451705641    1.835129908705    0.859432226381
 H    2.328536309433    1.084989783110   -0.767623937693
LI    0.611595026696   -4.642692723436    2.410471061822
