11

 H   -2.423271478394   -0.375746951037    0.395413096305
 H   -2.540305583784   -1.125845622761   -1.231655158749
 H   -2.423391848807    0.660052954922   -1.088168420036
 C   -2.103350115885   -0.297828461605   -0.653587876424
 S   -0.294449887867   -0.485852924722   -0.785007637932
 S    0.196047627450    1.211569469462    0.400051364541
 C    2.004947852662    1.023406325059    0.268830278683
 H    2.324870931501    0.065513877045    0.703474195724
 H    2.441903336112    1.851409458914    0.846917682050
 H    2.324987939904    1.101269333319   -0.780138482024
LI    0.659131367263   -4.860784508047    2.578124299873
