11

 H   -2.424454268237   -0.370320434300    0.391241581528
 H   -2.541488373627   -1.120419106024   -1.235826673526
 H   -2.424574638650    0.665479471659   -1.092339934813
 C   -2.104532905728   -0.292401944868   -0.657759391201
 S   -0.295632677710   -0.480426407985   -0.789179152709
 S    0.194864837607    1.216995986199    0.395879849764
 C    2.003765062819    1.028832841796    0.264658763906
 H    2.323688141658    0.070940393782    0.699302680947
 H    2.440720546269    1.856835975651    0.842746167273
 H    2.323805150061    1.106695850056   -0.784309996801
LI    0.674976814119   -4.933481769584    2.634008712557
