11

 H   -2.430368217452   -0.343187850617    0.370384007643
 H   -2.547402322842   -1.093286522341   -1.256684247411
 H   -2.430488587865    0.692612055342   -1.113197508698
 C   -2.110446854943   -0.265269361185   -0.678616965086
 S   -0.301546626925   -0.453293824302   -0.810036726594
 S    0.188950888392    1.244128569882    0.375022275879
 C    1.997851113604    1.055965425479    0.243801190021
 H    2.317774192443    0.098072977465    0.678445107062
 H    2.434806597054    1.883968559334    0.821888593388
 H    2.317891200846    1.133828433739   -0.805167570686
LI    0.754204048398   -5.296968077269    2.913430775976
