11

 H   -2.433916586981   -0.326908300407    0.357869463313
 H   -2.550950692371   -1.077006972131   -1.269198791741
 H   -2.434036957394    0.708891605552   -1.125712053028
 C   -2.113995224472   -0.248989810975   -0.691131509416
 S   -0.305094996454   -0.437014274092   -0.822551270924
 S    0.185402518863    1.260408120092    0.362507731549
 C    1.994302744075    1.072244975689    0.231286645691
 H    2.314225822914    0.114352527675    0.665930562732
 H    2.431258227525    1.900248109544    0.809374049058
 H    2.314342831317    1.150107983949   -0.817682115016
LI    0.801740388965   -5.515059861880    3.081084014028
