11

 H   -2.435099376824   -0.321481783670    0.353697948536
 H   -2.552133482214   -1.071580455394   -1.273370306518
 H   -2.435219747237    0.714318122289   -1.129883567805
 C   -2.115178014315   -0.243563294238   -0.695303024193
 S   -0.306277786297   -0.431587757355   -0.826722785701
 S    0.184219729020    1.265834636829    0.358336216772
 C    1.993119954232    1.077671492426    0.227115130914
 H    2.313043033071    0.119779044412    0.661759047955
 H    2.430075437682    1.905674626281    0.805202534281
 H    2.313160041474    1.155534500686   -0.821853629793
LI    0.817585835821   -5.587757123417    3.136968426712
