11

 H   -2.437464956510   -0.310628750197    0.345354918982
 H   -2.554499061900   -1.060727421921   -1.281713336072
 H   -2.437585326923    0.725171155762   -1.138226597359
 C   -2.117543594001   -0.232710260765   -0.703646053747
 S   -0.308643365983   -0.420734723882   -0.835065815255
 S    0.181854149334    1.276687670302    0.349993187218
 C    1.990754374546    1.088524525899    0.218772101360
 H    2.310677453385    0.130632077885    0.653416018401
 H    2.427709857996    1.916527659754    0.796859504727
 H    2.310794461788    1.166387534159   -0.830196659347
LI    0.849276729532   -5.733151646491    3.248737252080
