11

 H   -2.441013326039   -0.294349199987    0.332840374651
 H   -2.558047431429   -1.044447871711   -1.294227880403
 H   -2.441133696452    0.741450705972   -1.150741141690
 C   -2.121091963530   -0.216430710555   -0.716160598078
 S   -0.312191735512   -0.404455173672   -0.847580359586
 S    0.178305779805    1.292967220512    0.337478642887
 C    1.987206005017    1.104804076109    0.206257557029
 H    2.307129083856    0.146911628095    0.640901474070
 H    2.424161488467    1.932807209964    0.784344960396
 H    2.307246092259    1.182667084369   -0.842711203678
LI    0.896813070099   -5.951243431102    3.416390490131
