11

 H   -2.445744485412   -0.272643133040    0.316154315543
 H   -2.562778590802   -1.022741804764   -1.310913939511
 H   -2.445864855825    0.763156772919   -1.167427200798
 C   -2.125823122903   -0.194724643608   -0.732846657186
 S   -0.316922894885   -0.382749106725   -0.864266418694
 S    0.173574620432    1.314673287459    0.320792583779
 C    1.982474845644    1.126510143056    0.189571497921
 H    2.302397924483    0.168617695042    0.624215414962
 H    2.419430329094    1.954513276911    0.767658901288
 H    2.302514932886    1.204373151316   -0.859397262786
LI    0.960194857522   -6.242032477251    3.639928140866
