11

 H   -2.450475644784   -0.250937066094    0.299468256435
 H   -2.567509750174   -1.001035737818   -1.327599998619
 H   -2.450596015197    0.784862839865   -1.184113259906
 C   -2.130554282275   -0.173018576662   -0.749532716294
 S   -0.321654054257   -0.361043039779   -0.880952477802
 S    0.168843461060    1.336379354405    0.304106524671
 C    1.977743686272    1.148216210002    0.172885438813
 H    2.297666765111    0.190323761988    0.607529355854
 H    2.414699169722    1.976219343857    0.750972842180
 H    2.297783773514    1.226079218262   -0.876083321894
LI    1.023576644945   -6.532821523399    3.863465791602
