11

 H   -2.457572383842   -0.218377965674    0.274439167773
 H   -2.574606489232   -0.968476637398   -1.352629087281
 H   -2.457692754255    0.817421940285   -1.209142348568
 C   -2.137651021333   -0.140459476242   -0.774561804956
 S   -0.328750793315   -0.328483939359   -0.905981566464
 S    0.161746722002    1.368938454825    0.279077436009
 C    1.970646947214    1.180775310422    0.147856350151
 H    2.290570026053    0.222882862408    0.582500267192
 H    2.407602430664    2.008778444277    0.725943753518
 H    2.290687034456    1.258638318682   -0.901112410556
LI    1.118649326079   -6.969005092621    4.198772267705
