11

 H   -2.459937963528   -0.207524932201    0.266096138219
 H   -2.576972068918   -0.957623603925   -1.360972116835
 H   -2.460058333941    0.828274973758   -1.217485378122
 C   -2.140016601019   -0.129606442769   -0.782904834510
 S   -0.331116373001   -0.317630905886   -0.914324596018
 S    0.159381142316    1.379791488298    0.270734406455
 C    1.968281367528    1.191628343895    0.139513320597
 H    2.288204446367    0.233735895881    0.574157237638
 H    2.405236850978    2.019631477750    0.717600723964
 H    2.288321454770    1.269491352155   -0.909455440110
LI    1.150340219791   -7.114399615695    4.310541093073
