11

 H   -2.464669122900   -0.185818865254    0.249410079112
 H   -2.581703228290   -0.935917536978   -1.377658175942
 H   -2.464789493313    0.849981040705   -1.234171437229
 C   -2.144747760391   -0.107900375822   -0.799590893617
 S   -0.335847532373   -0.295924838939   -0.931010655125
 S    0.154649982944    1.401497555245    0.254048347348
 C    1.963550208156    1.213334410842    0.122827261490
 H    2.283473286995    0.255441962828    0.557471178531
 H    2.400505691606    2.041337544697    0.700914664857
 H    2.283590295398    1.291197419102   -0.926141499217
LI    1.213722007214   -7.405188661843    4.534078743808
