11

 H   -2.467034702586   -0.174965831781    0.241067049558
 H   -2.584068807976   -0.925064503505   -1.386001205496
 H   -2.467155072999    0.860834074178   -1.242514466783
 C   -2.147113340077   -0.097047342349   -0.807933923171
 S   -0.338213112059   -0.285071805466   -0.939353684679
 S    0.152284403258    1.412350588718    0.245705317794
 C    1.961184628470    1.224187444315    0.114484231936
 H    2.281107707309    0.266294996301    0.549128148977
 H    2.398140111920    2.052190578170    0.692571635303
 H    2.281224715712    1.302050452575   -0.934484528771
LI    1.245412900925   -7.550583184917    4.645847569176
