11

 H   -2.468217492429   -0.169539315044    0.236895534781
 H   -2.585251597819   -0.919637986768   -1.390172720273
 H   -2.468337862842    0.866260590915   -1.246685981560
 C   -2.148296129920   -0.091620825612   -0.812105437948
 S   -0.339395901902   -0.279645288729   -0.943525199456
 S    0.151101613415    1.417777105455    0.241533803017
 C    1.960001838627    1.229613961052    0.110312717159
 H    2.279924917466    0.271721513038    0.544956634200
 H    2.396957322077    2.057617094907    0.688400120526
 H    2.280041925869    1.307476969312   -0.938656043548
LI    1.261258347781   -7.623280446454    4.701731981860
