11

 H   -2.470583072115   -0.158686281571    0.228552505227
 H   -2.587617177505   -0.908784953295   -1.398515749827
 H   -2.470703442528    0.877113624388   -1.255029011114
 C   -2.150661709606   -0.080767792139   -0.820448467502
 S   -0.341761481588   -0.268792255256   -0.951868229010
 S    0.148736033729    1.428630138928    0.233190773463
 C    1.957636258941    1.240466994525    0.101969687605
 H    2.277559337780    0.282574546511    0.536613604646
 H    2.394591742391    2.068470128380    0.680057090972
 H    2.277676346183    1.318330002785   -0.946999073102
LI    1.292949241492   -7.768674969528    4.813500807227
