11

 H   -2.471765861958   -0.153259764834    0.224380990450
 H   -2.588799967348   -0.903358436558   -1.402687264604
 H   -2.471886232371    0.882540141125   -1.259200525891
 C   -2.151844499449   -0.075341275402   -0.824619982279
 S   -0.342944271431   -0.263365738519   -0.956039743787
 S    0.147553243886    1.434056655665    0.229019258686
 C    1.956453469098    1.245893511262    0.097798172828
 H    2.276376547937    0.288001063248    0.532442089869
 H    2.393408952548    2.073896645117    0.675885576195
 H    2.276493556340    1.323756519522   -0.951170587879
LI    1.308794688348   -7.841372231065    4.869385219911
