13

 C   -2.552383053937    0.000000103427    0.000000000000
 H   -3.647901053937    0.000000103427    0.000000000000
 C   -1.820916053937    1.209982103427    0.000000000000
 H   -2.358799053937    2.168601103427    0.000000000000
 C   -1.820916053937   -1.209982896573    0.000000000000
 H   -2.358798053937   -2.168601896573    0.000000000000
 C   -0.415746053937    1.215097103427    0.000000000000
 H    0.130883946063    2.167255103427    0.000000000000
 C   -0.415746053937   -1.215096896573    0.000000000000
 H    0.130883946063   -2.167253896573    0.000000000000
 C    0.379290946063    0.000000103427    0.000000000000
 O    1.665637946063    0.000000103427    0.000000000000
NA    2.665637946063    0.000000103427    0.000000000000
