13

 C   -2.809974149317    0.000000103427    0.000000000000
 H   -3.905492149317    0.000000103427    0.000000000000
 C   -2.078507149317    1.209982103427    0.000000000000
 H   -2.616390149317    2.168601103427    0.000000000000
 C   -2.078507149317   -1.209982896573    0.000000000000
 H   -2.616389149317   -2.168601896573    0.000000000000
 C   -0.673337149317    1.215097103427    0.000000000000
 H   -0.126707149317    2.167255103427    0.000000000000
 C   -0.673337149317   -1.215096896573    0.000000000000
 H   -0.126707149317   -2.167253896573    0.000000000000
 C    0.121699850683    0.000000103427    0.000000000000
 O    1.408046850683    0.000000103427    0.000000000000
NA    3.708046850683    0.000000103427    0.000000000000
