13

 C   -2.869418248251    0.000000103427    0.000000000000
 H   -3.964936248251    0.000000103427    0.000000000000
 C   -2.137951248251    1.209982103427    0.000000000000
 H   -2.675834248251    2.168601103427    0.000000000000
 C   -2.137951248251   -1.209982896573    0.000000000000
 H   -2.675833248251   -2.168601896573    0.000000000000
 C   -0.732781248251    1.215097103427    0.000000000000
 H   -0.186151248251    2.167255103427    0.000000000000
 C   -0.732781248251   -1.215096896573    0.000000000000
 H   -0.186151248251   -2.167253896573    0.000000000000
 C    0.062255751749    0.000000103427    0.000000000000
 O    1.348602751749    0.000000103427    0.000000000000
NA    3.948602751749    0.000000103427    0.000000000000
