13

 C   -2.889232947895    0.000000103427    0.000000000000
 H   -3.984750947895    0.000000103427    0.000000000000
 C   -2.157765947895    1.209982103427    0.000000000000
 H   -2.695648947895    2.168601103427    0.000000000000
 C   -2.157765947895   -1.209982896573    0.000000000000
 H   -2.695647947895   -2.168601896573    0.000000000000
 C   -0.752595947895    1.215097103427    0.000000000000
 H   -0.205965947895    2.167255103427    0.000000000000
 C   -0.752595947895   -1.215096896573    0.000000000000
 H   -0.205965947895   -2.167253896573    0.000000000000
 C    0.042441052105    0.000000103427    0.000000000000
 O    1.328788052105    0.000000103427    0.000000000000
NA    4.028788052105    0.000000103427    0.000000000000
