13

 C   -2.909047647540    0.000000103427    0.000000000000
 H   -4.004565647540    0.000000103427    0.000000000000
 C   -2.177580647540    1.209982103427    0.000000000000
 H   -2.715463647540    2.168601103427    0.000000000000
 C   -2.177580647540   -1.209982896573    0.000000000000
 H   -2.715462647540   -2.168601896573    0.000000000000
 C   -0.772410647540    1.215097103427    0.000000000000
 H   -0.225780647540    2.167255103427    0.000000000000
 C   -0.772410647540   -1.215096896573    0.000000000000
 H   -0.225780647540   -2.167253896573    0.000000000000
 C    0.022626352460    0.000000103427    0.000000000000
 O    1.308973352460    0.000000103427    0.000000000000
NA    4.108973352460    0.000000103427    0.000000000000
