13

 C   -2.988306446118    0.000000103427    0.000000000000
 H   -4.083824446118    0.000000103427    0.000000000000
 C   -2.256839446118    1.209982103427    0.000000000000
 H   -2.794722446118    2.168601103427    0.000000000000
 C   -2.256839446118   -1.209982896573    0.000000000000
 H   -2.794721446118   -2.168601896573    0.000000000000
 C   -0.851669446118    1.215097103427    0.000000000000
 H   -0.305039446118    2.167255103427    0.000000000000
 C   -0.851669446118   -1.215096896573    0.000000000000
 H   -0.305039446118   -2.167253896573    0.000000000000
 C   -0.056632446118    0.000000103427    0.000000000000
 O    1.229714553882    0.000000103427    0.000000000000
NA    4.429714553882    0.000000103427    0.000000000000
