13

 C   -3.047750545052    0.000000103427    0.000000000000
 H   -4.143268545052    0.000000103427    0.000000000000
 C   -2.316283545052    1.209982103427    0.000000000000
 H   -2.854166545052    2.168601103427    0.000000000000
 C   -2.316283545052   -1.209982896573    0.000000000000
 H   -2.854165545052   -2.168601896573    0.000000000000
 C   -0.911113545052    1.215097103427    0.000000000000
 H   -0.364483545052    2.167255103427    0.000000000000
 C   -0.911113545052   -1.215096896573    0.000000000000
 H   -0.364483545052   -2.167253896573    0.000000000000
 C   -0.116076545052    0.000000103427    0.000000000000
 O    1.170270454948    0.000000103427    0.000000000000
NA    4.670270454948    0.000000103427    0.000000000000
