13

 C   -3.245897541498    0.000000103427    0.000000000000
 H   -4.341415541498    0.000000103427    0.000000000000
 C   -2.514430541498    1.209982103427    0.000000000000
 H   -3.052313541498    2.168601103427    0.000000000000
 C   -2.514430541498   -1.209982896573    0.000000000000
 H   -3.052312541498   -2.168601896573    0.000000000000
 C   -1.109260541498    1.215097103427    0.000000000000
 H   -0.562630541498    2.167255103427    0.000000000000
 C   -1.109260541498   -1.215096896573    0.000000000000
 H   -0.562630541498   -2.167253896573    0.000000000000
 C   -0.314223541498    0.000000103427    0.000000000000
 O    0.972123458502    0.000000103427    0.000000000000
NA    5.472123458502    0.000000103427    0.000000000000
