13

 C   -3.265712241143    0.000000103427    0.000000000000
 H   -4.361230241143    0.000000103427    0.000000000000
 C   -2.534245241143    1.209982103427    0.000000000000
 H   -3.072128241143    2.168601103427    0.000000000000
 C   -2.534245241143   -1.209982896573    0.000000000000
 H   -3.072127241143   -2.168601896573    0.000000000000
 C   -1.129075241143    1.215097103427    0.000000000000
 H   -0.582445241143    2.167255103427    0.000000000000
 C   -1.129075241143   -1.215096896573    0.000000000000
 H   -0.582445241143   -2.167253896573    0.000000000000
 C   -0.334038241143    0.000000103427    0.000000000000
 O    0.952308758857    0.000000103427    0.000000000000
NA    5.552308758857    0.000000103427    0.000000000000
