13

 C   -3.325156340077    0.000000103427    0.000000000000
 H   -4.420674340077    0.000000103427    0.000000000000
 C   -2.593689340077    1.209982103427    0.000000000000
 H   -3.131572340077    2.168601103427    0.000000000000
 C   -2.593689340077   -1.209982896573    0.000000000000
 H   -3.131571340077   -2.168601896573    0.000000000000
 C   -1.188519340077    1.215097103427    0.000000000000
 H   -0.641889340077    2.167255103427    0.000000000000
 C   -1.188519340077   -1.215096896573    0.000000000000
 H   -0.641889340077   -2.167253896573    0.000000000000
 C   -0.393482340077    0.000000103427    0.000000000000
 O    0.892864659923    0.000000103427    0.000000000000
NA    5.792864659923    0.000000103427    0.000000000000
