13

 C   -3.463859237589    0.000000103427    0.000000000000
 H   -4.559377237589    0.000000103427    0.000000000000
 C   -2.732392237589    1.209982103427    0.000000000000
 H   -3.270275237589    2.168601103427    0.000000000000
 C   -2.732392237589   -1.209982896573    0.000000000000
 H   -3.270274237589   -2.168601896573    0.000000000000
 C   -1.327222237589    1.215097103427    0.000000000000
 H   -0.780592237589    2.167255103427    0.000000000000
 C   -1.327222237589   -1.215096896573    0.000000000000
 H   -0.780592237589   -2.167253896573    0.000000000000
 C   -0.532185237589    0.000000103427    0.000000000000
 O    0.754161762411    0.000000103427    0.000000000000
NA    6.354161762411    0.000000103427    0.000000000000
