13

 C   -3.503488636878    0.000000103427    0.000000000000
 H   -4.599006636878    0.000000103427    0.000000000000
 C   -2.772021636878    1.209982103427    0.000000000000
 H   -3.309904636878    2.168601103427    0.000000000000
 C   -2.772021636878   -1.209982896573    0.000000000000
 H   -3.309903636878   -2.168601896573    0.000000000000
 C   -1.366851636878    1.215097103427    0.000000000000
 H   -0.820221636878    2.167255103427    0.000000000000
 C   -1.366851636878   -1.215096896573    0.000000000000
 H   -0.820221636878   -2.167253896573    0.000000000000
 C   -0.571814636878    0.000000103427    0.000000000000
 O    0.714532363122    0.000000103427    0.000000000000
NA    6.514532363122    0.000000103427    0.000000000000
