13

 C   -3.562932735812    0.000000103427    0.000000000000
 H   -4.658450735812    0.000000103427    0.000000000000
 C   -2.831465735812    1.209982103427    0.000000000000
 H   -3.369348735812    2.168601103427    0.000000000000
 C   -2.831465735812   -1.209982896573    0.000000000000
 H   -3.369347735812   -2.168601896573    0.000000000000
 C   -1.426295735812    1.215097103427    0.000000000000
 H   -0.879665735812    2.167255103427    0.000000000000
 C   -1.426295735812   -1.215096896573    0.000000000000
 H   -0.879665735812   -2.167253896573    0.000000000000
 C   -0.631258735812    0.000000103427    0.000000000000
 O    0.655088264188    0.000000103427    0.000000000000
NA    6.755088264188    0.000000103427    0.000000000000
