13

 C   -3.582747435456    0.000000103427    0.000000000000
 H   -4.678265435456    0.000000103427    0.000000000000
 C   -2.851280435456    1.209982103427    0.000000000000
 H   -3.389163435456    2.168601103427    0.000000000000
 C   -2.851280435456   -1.209982896573    0.000000000000
 H   -3.389162435456   -2.168601896573    0.000000000000
 C   -1.446110435456    1.215097103427    0.000000000000
 H   -0.899480435456    2.167255103427    0.000000000000
 C   -1.446110435456   -1.215096896573    0.000000000000
 H   -0.899480435456   -2.167253896573    0.000000000000
 C   -0.651073435456    0.000000103427    0.000000000000
 O    0.635273564544    0.000000103427    0.000000000000
NA    6.835273564544    0.000000103427    0.000000000000
