13

 C   -3.622376834746    0.000000103427    0.000000000000
 H   -4.717894834746    0.000000103427    0.000000000000
 C   -2.890909834746    1.209982103427    0.000000000000
 H   -3.428792834746    2.168601103427    0.000000000000
 C   -2.890909834746   -1.209982896573    0.000000000000
 H   -3.428791834746   -2.168601896573    0.000000000000
 C   -1.485739834746    1.215097103427    0.000000000000
 H   -0.939109834746    2.167255103427    0.000000000000
 C   -1.485739834746   -1.215096896573    0.000000000000
 H   -0.939109834746   -2.167253896573    0.000000000000
 C   -0.690702834746    0.000000103427    0.000000000000
 O    0.595644165254    0.000000103427    0.000000000000
NA    6.995644165254    0.000000103427    0.000000000000
