13

 C   -3.662006234035    0.000000103427    0.000000000000
 H   -4.757524234035    0.000000103427    0.000000000000
 C   -2.930539234035    1.209982103427    0.000000000000
 H   -3.468422234035    2.168601103427    0.000000000000
 C   -2.930539234035   -1.209982896573    0.000000000000
 H   -3.468421234035   -2.168601896573    0.000000000000
 C   -1.525369234035    1.215097103427    0.000000000000
 H   -0.978739234035    2.167255103427    0.000000000000
 C   -1.525369234035   -1.215096896573    0.000000000000
 H   -0.978739234035   -2.167253896573    0.000000000000
 C   -0.730332234035    0.000000103427    0.000000000000
 O    0.556014765965    0.000000103427    0.000000000000
NA    7.156014765965    0.000000103427    0.000000000000
