13

 C   -3.721450332969    0.000000103427    0.000000000000
 H   -4.816968332969    0.000000103427    0.000000000000
 C   -2.989983332969    1.209982103427    0.000000000000
 H   -3.527866332969    2.168601103427    0.000000000000
 C   -2.989983332969   -1.209982896573    0.000000000000
 H   -3.527865332969   -2.168601896573    0.000000000000
 C   -1.584813332969    1.215097103427    0.000000000000
 H   -1.038183332969    2.167255103427    0.000000000000
 C   -1.584813332969   -1.215096896573    0.000000000000
 H   -1.038183332969   -2.167253896573    0.000000000000
 C   -0.789776332969    0.000000103427    0.000000000000
 O    0.496570667031    0.000000103427    0.000000000000
NA    7.396570667031    0.000000103427    0.000000000000
