13

 C   -3.820523831192    0.000000103427    0.000000000000
 H   -4.916041831192    0.000000103427    0.000000000000
 C   -3.089056831192    1.209982103427    0.000000000000
 H   -3.626939831192    2.168601103427    0.000000000000
 C   -3.089056831192   -1.209982896573    0.000000000000
 H   -3.626938831192   -2.168601896573    0.000000000000
 C   -1.683886831192    1.215097103427    0.000000000000
 H   -1.137256831192    2.167255103427    0.000000000000
 C   -1.683886831192   -1.215096896573    0.000000000000
 H   -1.137256831192   -2.167253896573    0.000000000000
 C   -0.888849831192    0.000000103427    0.000000000000
 O    0.397497168808    0.000000103427    0.000000000000
NA    7.797497168808    0.000000103427    0.000000000000
