13

 C   -3.860153230481    0.000000103427    0.000000000000
 H   -4.955671230481    0.000000103427    0.000000000000
 C   -3.128686230481    1.209982103427    0.000000000000
 H   -3.666569230481    2.168601103427    0.000000000000
 C   -3.128686230481   -1.209982896573    0.000000000000
 H   -3.666568230481   -2.168601896573    0.000000000000
 C   -1.723516230481    1.215097103427    0.000000000000
 H   -1.176886230481    2.167255103427    0.000000000000
 C   -1.723516230481   -1.215096896573    0.000000000000
 H   -1.176886230481   -2.167253896573    0.000000000000
 C   -0.928479230481    0.000000103427    0.000000000000
 O    0.357867769519    0.000000103427    0.000000000000
NA    7.957867769519    0.000000103427    0.000000000000
