13

 C   -3.879967930125    0.000000103427    0.000000000000
 H   -4.975485930125    0.000000103427    0.000000000000
 C   -3.148500930125    1.209982103427    0.000000000000
 H   -3.686383930125    2.168601103427    0.000000000000
 C   -3.148500930125   -1.209982896573    0.000000000000
 H   -3.686382930125   -2.168601896573    0.000000000000
 C   -1.743330930125    1.215097103427    0.000000000000
 H   -1.196700930125    2.167255103427    0.000000000000
 C   -1.743330930125   -1.215096896573    0.000000000000
 H   -1.196700930125   -2.167253896573    0.000000000000
 C   -0.948293930125    0.000000103427    0.000000000000
 O    0.338053069875    0.000000103427    0.000000000000
NA    8.038053069875    0.000000103427    0.000000000000
