13

 C   -3.919597329415    0.000000103427    0.000000000000
 H   -5.015115329415    0.000000103427    0.000000000000
 C   -3.188130329415    1.209982103427    0.000000000000
 H   -3.726013329415    2.168601103427    0.000000000000
 C   -3.188130329415   -1.209982896573    0.000000000000
 H   -3.726012329415   -2.168601896573    0.000000000000
 C   -1.782960329415    1.215097103427    0.000000000000
 H   -1.236330329415    2.167255103427    0.000000000000
 C   -1.782960329415   -1.215096896573    0.000000000000
 H   -1.236330329415   -2.167253896573    0.000000000000
 C   -0.987923329415    0.000000103427    0.000000000000
 O    0.298423670585    0.000000103427    0.000000000000
NA    8.198423670585    0.000000103427    0.000000000000
