13

 C   -4.018670827638    0.000000103427    0.000000000000
 H   -5.114188827638    0.000000103427    0.000000000000
 C   -3.287203827638    1.209982103427    0.000000000000
 H   -3.825086827638    2.168601103427    0.000000000000
 C   -3.287203827638   -1.209982896573    0.000000000000
 H   -3.825085827638   -2.168601896573    0.000000000000
 C   -1.882033827638    1.215097103427    0.000000000000
 H   -1.335403827638    2.167255103427    0.000000000000
 C   -1.882033827638   -1.215096896573    0.000000000000
 H   -1.335403827638   -2.167253896573    0.000000000000
 C   -1.086996827638    0.000000103427    0.000000000000
 O    0.199350172362    0.000000103427    0.000000000000
NA    8.599350172362    0.000000103427    0.000000000000
