13

 C   -4.078114926571    0.000000103427    0.000000000000
 H   -5.173632926571    0.000000103427    0.000000000000
 C   -3.346647926571    1.209982103427    0.000000000000
 H   -3.884530926571    2.168601103427    0.000000000000
 C   -3.346647926571   -1.209982896573    0.000000000000
 H   -3.884529926571   -2.168601896573    0.000000000000
 C   -1.941477926571    1.215097103427    0.000000000000
 H   -1.394847926571    2.167255103427    0.000000000000
 C   -1.941477926571   -1.215096896573    0.000000000000
 H   -1.394847926571   -2.167253896573    0.000000000000
 C   -1.146440926571    0.000000103427    0.000000000000
 O    0.139906073429    0.000000103427    0.000000000000
NA    8.839906073429    0.000000103427    0.000000000000
