13

 C   -4.117744325861    0.000000103427    0.000000000000
 H   -5.213262325861    0.000000103427    0.000000000000
 C   -3.386277325861    1.209982103427    0.000000000000
 H   -3.924160325861    2.168601103427    0.000000000000
 C   -3.386277325861   -1.209982896573    0.000000000000
 H   -3.924159325861   -2.168601896573    0.000000000000
 C   -1.981107325861    1.215097103427    0.000000000000
 H   -1.434477325861    2.167255103427    0.000000000000
 C   -1.981107325861   -1.215096896573    0.000000000000
 H   -1.434477325861   -2.167253896573    0.000000000000
 C   -1.186070325861    0.000000103427    0.000000000000
 O    0.100276674139    0.000000103427    0.000000000000
NA    9.000276674139    0.000000103427    0.000000000000
