13

 C   -4.177188424794    0.000000103427    0.000000000000
 H   -5.272706424794    0.000000103427    0.000000000000
 C   -3.445721424794    1.209982103427    0.000000000000
 H   -3.983604424794    2.168601103427    0.000000000000
 C   -3.445721424794   -1.209982896573    0.000000000000
 H   -3.983603424794   -2.168601896573    0.000000000000
 C   -2.040551424794    1.215097103427    0.000000000000
 H   -1.493921424794    2.167255103427    0.000000000000
 C   -2.040551424794   -1.215096896573    0.000000000000
 H   -1.493921424794   -2.167253896573    0.000000000000
 C   -1.245514424794    0.000000103427    0.000000000000
 O    0.040832575206    0.000000103427    0.000000000000
NA    9.240832575206    0.000000103427    0.000000000000
