13

 C   -4.216817824084    0.000000103427    0.000000000000
 H   -5.312335824084    0.000000103427    0.000000000000
 C   -3.485350824084    1.209982103427    0.000000000000
 H   -4.023233824084    2.168601103427    0.000000000000
 C   -3.485350824084   -1.209982896573    0.000000000000
 H   -4.023232824084   -2.168601896573    0.000000000000
 C   -2.080180824084    1.215097103427    0.000000000000
 H   -1.533550824084    2.167255103427    0.000000000000
 C   -2.080180824084   -1.215096896573    0.000000000000
 H   -1.533550824084   -2.167253896573    0.000000000000
 C   -1.285143824084    0.000000103427    0.000000000000
 O    0.001203175916    0.000000103427    0.000000000000
NA    9.401203175916    0.000000103427    0.000000000000
