13

 C   -4.236632523728    0.000000103427    0.000000000000
 H   -5.332150523728    0.000000103427    0.000000000000
 C   -3.505165523728    1.209982103427    0.000000000000
 H   -4.043048523728    2.168601103427    0.000000000000
 C   -3.505165523728   -1.209982896573    0.000000000000
 H   -4.043047523728   -2.168601896573    0.000000000000
 C   -2.099995523728    1.215097103427    0.000000000000
 H   -1.553365523728    2.167255103427    0.000000000000
 C   -2.099995523728   -1.215096896573    0.000000000000
 H   -1.553365523728   -2.167253896573    0.000000000000
 C   -1.304958523728    0.000000103427    0.000000000000
 O   -0.018611523728    0.000000103427    0.000000000000
NA    9.481388476272    0.000000103427    0.000000000000
