13

 C   -4.256447223373    0.000000103427    0.000000000000
 H   -5.351965223373    0.000000103427    0.000000000000
 C   -3.524980223373    1.209982103427    0.000000000000
 H   -4.062863223373    2.168601103427    0.000000000000
 C   -3.524980223373   -1.209982896573    0.000000000000
 H   -4.062862223373   -2.168601896573    0.000000000000
 C   -2.119810223373    1.215097103427    0.000000000000
 H   -1.573180223373    2.167255103427    0.000000000000
 C   -2.119810223373   -1.215096896573    0.000000000000
 H   -1.573180223373   -2.167253896573    0.000000000000
 C   -1.324773223373    0.000000103427    0.000000000000
 O   -0.038426223373    0.000000103427    0.000000000000
NA    9.561573776627    0.000000103427    0.000000000000
