13

 C   -4.276261923017    0.000000103427    0.000000000000
 H   -5.371779923017    0.000000103427    0.000000000000
 C   -3.544794923017    1.209982103427    0.000000000000
 H   -4.082677923017    2.168601103427    0.000000000000
 C   -3.544794923017   -1.209982896573    0.000000000000
 H   -4.082676923017   -2.168601896573    0.000000000000
 C   -2.139624923017    1.215097103427    0.000000000000
 H   -1.592994923017    2.167255103427    0.000000000000
 C   -2.139624923017   -1.215096896573    0.000000000000
 H   -1.592994923017   -2.167253896573    0.000000000000
 C   -1.344587923017    0.000000103427    0.000000000000
 O   -0.058240923017    0.000000103427    0.000000000000
NA    9.641759076983    0.000000103427    0.000000000000
