13

 C   -4.296076622662    0.000000103427    0.000000000000
 H   -5.391594622662    0.000000103427    0.000000000000
 C   -3.564609622662    1.209982103427    0.000000000000
 H   -4.102492622662    2.168601103427    0.000000000000
 C   -3.564609622662   -1.209982896573    0.000000000000
 H   -4.102491622662   -2.168601896573    0.000000000000
 C   -2.159439622662    1.215097103427    0.000000000000
 H   -1.612809622662    2.167255103427    0.000000000000
 C   -2.159439622662   -1.215096896573    0.000000000000
 H   -1.612809622662   -2.167253896573    0.000000000000
 C   -1.364402622662    0.000000103427    0.000000000000
 O   -0.078055622662    0.000000103427    0.000000000000
NA    9.721944377338    0.000000103427    0.000000000000
