16

 N   -3.462798209275   -0.536359659462    0.520495912245
 C   -2.230672477008   -1.166649939470    0.521450872553
 N   -1.960531540882   -2.487535414438    0.517986683606
 C   -0.632402372419   -2.705729307188    0.533554112269
 H   -0.318594089449   -3.752408039678    0.536933682960
 N    0.379947070622   -1.797748350047    0.547525382544
 C    0.067730326715   -0.486927266798    0.542878978644
 N    1.075357281517    0.437571370507    0.501057141713
 H    2.006808818904    0.107041261755    0.723515075846
 H    0.842619775490    1.397542125546    0.725867387153
 C   -1.297770514159   -0.110233412931    0.534107890929
 N   -1.921299825350    1.128732287699    0.543986099947
 C   -3.221225312507    0.820652899338    0.535531246789
 H   -4.031278841294    1.547233700440    0.539579384652
 H   -4.366587886445   -0.996616783296    0.512892856312
CS    1.325405997056    0.685313469616   -0.541103830588
