16

 N   -3.474072905670   -0.547530350524    0.567486949700
 C   -2.241947173403   -1.177820630532    0.568441910008
 N   -1.971806237277   -2.498706105500    0.564977721061
 C   -0.643677068814   -2.716899998250    0.580545149724
 H   -0.329868785844   -3.763578730740    0.583924720415
 N    0.368672374227   -1.808919041109    0.594516419999
 C    0.056455630320   -0.498097957860    0.589870016099
 N    1.064082585122    0.426400679445    0.548048179168
 H    1.995534122509    0.095870570693    0.770506113301
 H    0.831345079095    1.386371434484    0.772858424608
 C   -1.309045210554   -0.121404103993    0.581098928384
 N   -1.932574521745    1.117561596637    0.590977137402
 C   -3.232500008902    0.809482208276    0.582522284244
 H   -4.042553537689    1.536063009378    0.586570422107
 H   -4.377862582840   -1.007787474358    0.559883893767
CS    1.336863002073    0.696664787564   -0.588854699705
