16

 N   -3.485347602065   -0.558701041586    0.614477987155
 C   -2.253221869798   -1.188991321594    0.615432947463
 N   -1.983080933672   -2.509876796562    0.611968758516
 C   -0.654951765209   -2.728070689312    0.627536187179
 H   -0.341143482239   -3.774749421802    0.630915757870
 N    0.357397677832   -1.820089732171    0.641507457454
 C    0.045180933925   -0.509268648922    0.636861053554
 N    1.052807888727    0.415229988383    0.595039216623
 H    1.984259426114    0.084699879631    0.817497150756
 H    0.820070382700    1.375200743422    0.819849462063
 C   -1.320319906949   -0.132574795055    0.628089965839
 N   -1.943849218140    1.106390905575    0.637968174857
 C   -3.243774705297    0.798311517214    0.629513321699
 H   -4.053828234084    1.524892318316    0.633561459562
 H   -4.389137279235   -1.018958165420    0.606874931222
CS    1.348320007091    0.708016105512   -0.636605568823
