16

 N   -3.507896994855   -0.581042423710    0.708460062065
 C   -2.275771262588   -1.211332703718    0.709415022373
 N   -2.005630326462   -2.532218178686    0.705950833426
 C   -0.677501157999   -2.750412071436    0.721518262089
 H   -0.363692875029   -3.797090803926    0.724897832780
 N    0.334848285042   -1.842431114295    0.735489532364
 C    0.022631541135   -0.531610031046    0.730843128464
 N    1.030258495937    0.392888606259    0.689021291533
 H    1.961710033324    0.062358497507    0.911479225666
 H    0.797520989910    1.352859361298    0.913831536973
 C   -1.342869299739   -0.154916177179    0.722072040749
 N   -1.966398610930    1.084049523451    0.731950249767
 C   -3.266324098087    0.775970135090    0.723495396609
 H   -4.076377626874    1.502550936192    0.727543534472
 H   -4.411686672025   -1.041299547544    0.700857006132
CS    1.371234017126    0.730718741408   -0.732107307059
