16

 N   -3.519171691250   -0.592213114772    0.755451099520
 C   -2.287045958983   -1.222503394780    0.756406059828
 N   -2.016905022857   -2.543388869748    0.752941870881
 C   -0.688775854394   -2.761582762498    0.768509299544
 H   -0.374967571424   -3.808261494988    0.771888870235
 N    0.323573588647   -1.853601805357    0.782480569819
 C    0.011356844740   -0.542780722108    0.777834165919
 N    1.018983799542    0.381717915197    0.736012328988
 H    1.950435336929    0.051187806445    0.958470263121
 H    0.786246293515    1.341688670236    0.960822574428
 C   -1.354143996134   -0.166086868241    0.769063078204
 N   -1.977673307325    1.072878832389    0.778941287222
 C   -3.277598794482    0.764799444028    0.770486434064
 H   -4.087652323269    1.491380245130    0.774534571927
 H   -4.422961368420   -1.052470238606    0.747848043587
CS    1.382691022143    0.742070059356   -0.779858176176
