16

 N   -3.530446387645   -0.603383805834    0.802442136975
 C   -2.298320655378   -1.233674085842    0.803397097283
 N   -2.028179719252   -2.554559560810    0.799932908336
 C   -0.700050550789   -2.772753453560    0.815500336999
 H   -0.386242267819   -3.819432186050    0.818879907690
 N    0.312298892252   -1.864772496419    0.829471607274
 C    0.000082148345   -0.553951413170    0.824825203374
 N    1.007709103147    0.370547224135    0.783003366443
 H    1.939160640534    0.040017115383    1.005461300576
 H    0.774971597120    1.330517979174    1.007813611883
 C   -1.365418692529   -0.177257559303    0.816054115659
 N   -1.988948003720    1.061708141327    0.825932324677
 C   -3.288873490877    0.753628752966    0.817477471519
 H   -4.098927019664    1.480209554068    0.821525609382
 H   -4.434236064815   -1.063640929668    0.794839081042
CS    1.394148027161    0.753421377304   -0.827609045294
