16

 N   -3.541721084040   -0.614554496896    0.849433174430
 C   -2.309595351773   -1.244844776904    0.850388134738
 N   -2.039454415647   -2.565730251872    0.846923945791
 C   -0.711325247184   -2.783924144622    0.862491374454
 H   -0.397516964214   -3.830602877112    0.865870945145
 N    0.301024195857   -1.875943187481    0.876462644729
 C   -0.011192548050   -0.565122104232    0.871816240829
 N    0.996434406752    0.359376533073    0.829994403898
 H    1.927885944139    0.028846424321    1.052452338031
 H    0.763696900725    1.319347288112    1.054804649338
 C   -1.376693388924   -0.188428250365    0.863045153114
 N   -2.000222700115    1.050537450265    0.872923362132
 C   -3.300148187272    0.742458061904    0.864468508974
 H   -4.110201716059    1.469038863006    0.868516646837
 H   -4.445510761210   -1.074811620730    0.841830118497
CS    1.405605032178    0.764772695252   -0.875359914412
