16

 N   -3.564270476830   -0.636895879020    0.943415249340
 C   -2.332144744563   -1.267186159028    0.944370209648
 N   -2.062003808437   -2.588071633996    0.940906020701
 C   -0.733874639974   -2.806265526746    0.956473449364
 H   -0.420066357004   -3.852944259236    0.959853020055
 N    0.278474803067   -1.898284569605    0.970444719639
 C   -0.033741940840   -0.587463486356    0.965798315739
 N    0.973885013962    0.337035150949    0.923976478808
 H    1.905336551349    0.006505042197    1.146434412941
 H    0.741147507935    1.297005905988    1.148786724248
 C   -1.399242781714   -0.210769632489    0.957027228024
 N   -2.022772092905    1.028196068141    0.966905437042
 C   -3.322697580062    0.720116679780    0.958450583884
 H   -4.132751108849    1.446697480882    0.962498721747
 H   -4.468060154000   -1.097153002854    0.935812193407
CS    1.428519042213    0.787475331148   -0.970861652648
