16

 N   -3.586819869620   -0.659237261144    1.037397324250
 C   -2.354694137353   -1.289527541152    1.038352284558
 N   -2.084553201227   -2.610413016120    1.034888095611
 C   -0.756424032764   -2.828606908870    1.050455524274
 H   -0.442615749794   -3.875285641360    1.053835094965
 N    0.255925410277   -1.920625951729    1.064426794549
 C   -0.056291333630   -0.609804868480    1.059780390649
 N    0.951335621172    0.314693768825    1.017958553718
 H    1.882787158559   -0.015836339927    1.240416487851
 H    0.718598115145    1.274664523864    1.242768799158
 C   -1.421792174504   -0.233111014613    1.051009302934
 N   -2.045321485695    1.005854686017    1.060887511952
 C   -3.345246972852    0.697775297656    1.052432658794
 H   -4.155300501639    1.424356098758    1.056480796657
 H   -4.490609546790   -1.119494384978    1.029794268317
CS    1.451433052248    0.810177967044   -1.066363390883
