16

 N   -3.620643958805   -0.692749334330    1.178370436615
 C   -2.388518226538   -1.323039614338    1.179325396923
 N   -2.118377290412   -2.643925089306    1.175861207976
 C   -0.790248121949   -2.862118982056    1.191428636639
 H   -0.476439838979   -3.908797714546    1.194808207330
 N    0.222101321092   -1.954138024915    1.205399906914
 C   -0.090115422815   -0.643316941666    1.200753503014
 N    0.917511531987    0.281181695639    1.158931666083
 H    1.848963069374   -0.049348413113    1.381389600216
 H    0.684774025960    1.241152450678    1.383741911523
 C   -1.455616263689   -0.266623087799    1.191982415299
 N   -2.079145574880    0.972342612831    1.201860624317
 C   -3.379071062037    0.664263224470    1.193405771159
 H   -4.189124590824    1.390844025572    1.197453909022
 H   -4.524433635975   -1.153006458164    1.170767380682
CS    1.485804067301    0.844231920888   -1.209615998236
