16

 N   -3.631918655200   -0.703920025392    1.225361474070
 C   -2.399792922933   -1.334210305400    1.226316434378
 N   -2.129651986807   -2.655095780368    1.222852245431
 C   -0.801522818344   -2.873289673118    1.238419674094
 H   -0.487714535374   -3.919968405608    1.241799244785
 N    0.210826624697   -1.965308715977    1.252390944369
 C   -0.101390119210   -0.654487632728    1.247744540469
 N    0.906236835592    0.270011004577    1.205922703538
 H    1.837688372979   -0.060519104175    1.428380637671
 H    0.673499329565    1.229981759616    1.430732948978
 C   -1.466890960084   -0.277793778861    1.238973452754
 N   -2.090420271275    0.961171921769    1.248851661772
 C   -3.390345758432    0.653092533408    1.240396808614
 H   -4.200399287219    1.379673334510    1.244444946477
 H   -4.535708332370   -1.164177149226    1.217758418137
CS    1.497261072318    0.855583238836   -1.257366867354
