16

 N   -3.665742744385   -0.737432098578    1.366334586435
 C   -2.433617012118   -1.367722378586    1.367289546743
 N   -2.163476075992   -2.688607853554    1.363825357796
 C   -0.835346907529   -2.906801746304    1.379392786459
 H   -0.521538624559   -3.953480478794    1.382772357150
 N    0.177002535512   -1.998820789163    1.393364056734
 C   -0.135214208395   -0.687999705914    1.388717652834
 N    0.872412746407    0.236498931391    1.346895815903
 H    1.803864283794   -0.094031177361    1.569353750036
 H    0.639675240380    1.196469686430    1.571706061343
 C   -1.500715049269   -0.311305852047    1.379946565119
 N   -2.124244360460    0.927659848583    1.389824774137
 C   -3.424169847617    0.619580460222    1.381369920979
 H   -4.234223376404    1.346161261324    1.385418058842
 H   -4.569532421555   -1.197689222412    1.358731530502
CS    1.531632087371    0.889637192680   -1.400619474707
