16

 N   -3.677017440780   -0.748602789640    1.413325623890
 C   -2.444891708513   -1.378893069648    1.414280584198
 N   -2.174750772387   -2.699778544616    1.410816395251
 C   -0.846621603924   -2.917972437366    1.426383823914
 H   -0.532813320954   -3.964651169856    1.429763394605
 N    0.165727839117   -2.009991480225    1.440355094189
 C   -0.146488904790   -0.699170396976    1.435708690289
 N    0.861138050012    0.225328240329    1.393886853358
 H    1.792589587399   -0.105201868423    1.616344787491
 H    0.628400543985    1.185298995368    1.618697098798
 C   -1.511989745664   -0.322476543109    1.426937602574
 N   -2.135519056855    0.916489157521    1.436815811592
 C   -3.435444544012    0.608409769160    1.428360958434
 H   -4.245498072799    1.334990570262    1.432409096297
 H   -4.580807117950   -1.208859913474    1.405722567957
CS    1.543089092389    0.900988510627   -1.448370343825
