16

 N   -3.688292137175   -0.759773480702    1.460316661345
 C   -2.456166404908   -1.390063760710    1.461271621653
 N   -2.186025468782   -2.710949235678    1.457807432706
 C   -0.857896300319   -2.929143128428    1.473374861369
 H   -0.544088017349   -3.975821860918    1.476754432060
 N    0.154453142722   -2.021162171287    1.487346131644
 C   -0.157763601185   -0.710341088038    1.482699727744
 N    0.849863353617    0.214157549267    1.440877890813
 H    1.781314891004   -0.116372559485    1.663335824946
 H    0.617125847590    1.174128304306    1.665688136253
 C   -1.523264442059   -0.333647234171    1.473928640029
 N   -2.146793753250    0.905318466459    1.483806849047
 C   -3.446719240407    0.597239078098    1.475351995889
 H   -4.256772769194    1.323819879200    1.479400133752
 H   -4.592081814345   -1.220030604536    1.452713605412
CS    1.554546097406    0.912339828575   -1.496121212943
