16

 N   -3.733390922755   -0.804456244950    1.648280811165
 C   -2.501265190488   -1.434746524958    1.649235771473
 N   -2.231124254362   -2.755631999926    1.645771582526
 C   -0.902995085899   -2.973825892676    1.661339011189
 H   -0.589186802929   -4.020504625166    1.664718581880
 N    0.109354357142   -2.065844935535    1.675310281464
 C   -0.202862386765   -0.755023852286    1.670663877564
 N    0.804764568037    0.169474785019    1.628842040633
 H    1.736216105424   -0.161055323733    1.851299974766
 H    0.572027062010    1.129445540058    1.853652286073
 C   -1.568363227639   -0.378329998419    1.661892789849
 N   -2.191892538830    0.860635702211    1.671770998867
 C   -3.491818025987    0.552556313850    1.663316145709
 H   -4.301871554774    1.279137114952    1.667364283572
 H   -4.637180599925   -1.264713368784    1.640677755232
CS    1.600374117476    0.957745100367   -1.687124689414
