16

 N   -3.755940315545   -0.826797627074    1.742262886076
 C   -2.523814583278   -1.457087907082    1.743217846384
 N   -2.253673647152   -2.777973382050    1.739753657437
 C   -0.925544478689   -2.996167274800    1.755321086100
 H   -0.611736195719   -4.042846007290    1.758700656791
 N    0.086804964352   -2.088186317659    1.769292356375
 C   -0.225411779555   -0.777365234410    1.764645952475
 N    0.782215175247    0.147133402895    1.722824115544
 H    1.713666712634   -0.183396705857    1.945282049677
 H    0.549477669220    1.107104157934    1.947634360984
 C   -1.590912620429   -0.400671380543    1.755874864760
 N   -2.214441931620    0.838294320087    1.765753073778
 C   -3.514367418777    0.530214931726    1.757298220620
 H   -4.324420947564    1.256795732828    1.761346358483
 H   -4.659729992715   -1.287054750908    1.734659830143
CS    1.623288127511    0.980447736263   -1.782626427650
