16

 N   -3.789764404730   -0.860309700260    1.883235998441
 C   -2.557638672463   -1.490599980268    1.884190958749
 N   -2.287497736337   -2.811485455236    1.880726769802
 C   -0.959368567874   -3.029679347986    1.896294198465
 H   -0.645560284904   -4.076358080476    1.899673769156
 N    0.052980875167   -2.121698390845    1.910265468740
 C   -0.259235868740   -0.810877307596    1.905619064840
 N    0.748391086062    0.113621329709    1.863797227909
 H    1.679842623449   -0.216908779043    2.086255162042
 H    0.515653580035    1.073592084748    2.088607473349
 C   -1.624736709614   -0.434183453729    1.896847977125
 N   -2.248266020805    0.804782246901    1.906726186143
 C   -3.548191507962    0.496702858540    1.898271332985
 H   -4.358245036749    1.223283659642    1.902319470848
 H   -4.693554081900   -1.320566824094    1.875632942508
CS    1.657659142564    1.014501690107   -1.925879035003
