16

 N   -3.823588493915   -0.893821773446    2.024209110806
 C   -2.591462761648   -1.524112053454    2.025164071114
 N   -2.321321825522   -2.844997528422    2.021699882167
 C   -0.993192657059   -3.063191421172    2.037267310830
 H   -0.679384374089   -4.109870153662    2.040646881521
 N    0.019156785982   -2.155210464031    2.051238581105
 C   -0.293059957925   -0.844389380782    2.046592177205
 N    0.714566996877    0.080109256523    2.004770340274
 H    1.646018534264   -0.250420852229    2.227228274407
 H    0.481829490850    1.040080011562    2.229580585714
 C   -1.658560798799   -0.467695526915    2.037821089490
 N   -2.282090109990    0.771270173715    2.047699298508
 C   -3.582015597147    0.463190785354    2.039244445350
 H   -4.392069125934    1.189771586456    2.043292583213
 H   -4.727378171085   -1.354078897280    2.016606054873
CS    1.692030157617    1.048555643951   -2.069131642356
