16

 N   -3.834863190310   -0.904992464508    2.071200148261
 C   -2.602737458043   -1.535282744516    2.072155108569
 N   -2.332596521917   -2.856168219484    2.068690919622
 C   -1.004467353454   -3.074362112234    2.084258348285
 H   -0.690659070484   -4.121040844724    2.087637918976
 N    0.007882089587   -2.166381155093    2.098229618560
 C   -0.304334654320   -0.855560071844    2.093583214660
 N    0.703292300482    0.068938565461    2.051761377729
 H    1.634743837869   -0.261591543291    2.274219311862
 H    0.470554794455    1.028909320500    2.276571623169
 C   -1.669835495194   -0.478866217977    2.084812126945
 N   -2.293364806385    0.760099482653    2.094690335963
 C   -3.593290293542    0.452020094292    2.086235482805
 H   -4.403343822329    1.178600895394    2.090283620668
 H   -4.738652867480   -1.365249588342    2.063597092328
CS    1.703487162634    1.059906961899   -2.116882511474
