16

 N   -3.891236672285   -0.960845919818    2.306155335536
 C   -2.659110940018   -1.591136199826    2.307110295844
 N   -2.388970003892   -2.912021674794    2.303646106897
 C   -1.060840835429   -3.130215567544    2.319213535560
 H   -0.747032552459   -4.176894300034    2.322593106251
 N   -0.048491392388   -2.222234610403    2.333184805835
 C   -0.360708136295   -0.911413527154    2.328538401935
 N    0.646918818507    0.013085110151    2.286716565004
 H    1.578370355894   -0.317444998601    2.509174499137
 H    0.414181312480    0.973055865190    2.511526810444
 C   -1.726208977169   -0.534719673287    2.319767314220
 N   -2.349738288360    0.704246027343    2.329645523238
 C   -3.649663775517    0.396166638982    2.321190670080
 H   -4.459717304304    1.122747440084    2.325238807943
 H   -4.795026349455   -1.421103043652    2.298552279603
CS    1.760772187722    1.116663551639   -2.355636857063
