16

 N   -3.902511368680   -0.972016610880    2.353146372991
 C   -2.670385636413   -1.602306890888    2.354101333299
 N   -2.400244700287   -2.923192365856    2.350637144352
 C   -1.072115531824   -3.141386258606    2.366204573015
 H   -0.758307248854   -4.188064991096    2.369584143706
 N   -0.059766088783   -2.233405301465    2.380175843290
 C   -0.371982832690   -0.922584218216    2.375529439390
 N    0.635644122112    0.001914419089    2.333707602459
 H    1.567095659499   -0.328615689663    2.556165536592
 H    0.402906616085    0.961885174128    2.558517847899
 C   -1.737483673564   -0.545890364349    2.366758351675
 N   -2.361012984755    0.693075336281    2.376636560693
 C   -3.660938471912    0.384995947920    2.368181707535
 H   -4.470992000699    1.111576749022    2.372229845398
 H   -4.806301045850   -1.432273734714    2.345543317058
CS    1.772229192739    1.128014869587   -2.403387726180
