16

 N   -3.992708939840   -1.061382139376    2.729074672631
 C   -2.760583207573   -1.691672419384    2.730029632939
 N   -2.490442271447   -3.012557894352    2.726565443992
 C   -1.162313102984   -3.230751787102    2.742132872655
 H   -0.848504820014   -4.277430519592    2.745512443346
 N   -0.149963659943   -2.322770829961    2.756104142930
 C   -0.462180403850   -1.011949746712    2.751457739030
 N    0.545446550952   -0.087451109407    2.709635902099
 H    1.476898088339   -0.417981218159    2.932093836232
 H    0.312709044925    0.872519645632    2.934446147539
 C   -1.827681244724   -0.635255892845    2.742686651315
 N   -2.451210555915    0.603709807785    2.752564860333
 C   -3.751136043072    0.295630419424    2.744110007175
 H   -4.561189571859    1.022211220526    2.748158145038
 H   -4.896498617010   -1.521639263210    2.721471616698
CS    1.863885232879    1.218825413170   -2.785394679123
