16

 N   -4.003983636235   -1.072552830438    2.776065710086
 C   -2.771857903968   -1.702843110446    2.777020670394
 N   -2.501716967842   -3.023728585414    2.773556481447
 C   -1.173587799379   -3.241922478164    2.789123910110
 H   -0.859779516409   -4.288601210654    2.792503480801
 N   -0.161238356338   -2.333941521023    2.803095180385
 C   -0.473455100245   -1.023120437774    2.798448776485
 N    0.534171854557   -0.098621800469    2.756626939554
 H    1.465623391944   -0.429151909221    2.979084873687
 H    0.301434348530    0.861348954570    2.981437184994
 C   -1.838955941119   -0.646426583907    2.789677688770
 N   -2.462485252310    0.592539116723    2.799555897788
 C   -3.762410739467    0.284459728362    2.791101044630
 H   -4.572464268254    1.011040529464    2.795149182493
 H   -4.907773313405   -1.532809954272    2.768462654153
CS    1.875342237897    1.230176731118   -2.833145548240
