16

 N   -4.037807725421   -1.106064903624    2.917038822451
 C   -2.805681993154   -1.736355183632    2.917993782759
 N   -2.535541057028   -3.057240658600    2.914529593812
 C   -1.207411888565   -3.275434551350    2.930097022475
 H   -0.893603605595   -4.322113283840    2.933476593166
 N   -0.195062445524   -2.367453594209    2.944068292750
 C   -0.507279189431   -1.056632510960    2.939421888850
 N    0.500347765371   -0.132133873655    2.897600051919
 H    1.431799302758   -0.462663982407    3.120057986052
 H    0.267610259344    0.827836881384    3.122410297359
 C   -1.872780030305   -0.679938657093    2.930650801135
 N   -2.496309341496    0.559027043537    2.940529010153
 C   -3.796234828653    0.250947655176    2.932074156995
 H   -4.606288357440    0.977528456278    2.936122294858
 H   -4.941597402591   -1.566322027458    2.909435766518
CS    1.909713252950    1.264230684962   -2.976398155594
