16

 N   -4.049082421816   -1.117235594686    2.964029859906
 C   -2.816956689549   -1.747525874694    2.964984820214
 N   -2.546815753423   -3.068411349662    2.961520631267
 C   -1.218686584960   -3.286605242412    2.977088059930
 H   -0.904878301990   -4.333283974902    2.980467630621
 N   -0.206337141919   -2.378624285271    2.991059330205
 C   -0.518553885826   -1.067803202022    2.986412926305
 N    0.489073068976   -0.143304564717    2.944591089374
 H    1.420524606363   -0.473834673469    3.167049023507
 H    0.256335562949    0.816666190322    3.169401334814
 C   -1.884054726700   -0.691109348155    2.977641838590
 N   -2.507584037891    0.547856352475    2.987520047608
 C   -3.807509525048    0.239776964114    2.979065194450
 H   -4.617563053835    0.966357765216    2.983113332313
 H   -4.952872098986   -1.577492718520    2.956426803973
CS    1.921170257967    1.275582002910   -3.024149024711
