16

 N   -4.060357118211   -1.128406285748    3.011020897361
 C   -2.828231385944   -1.758696565756    3.011975857669
 N   -2.558090449818   -3.079582040724    3.008511668722
 C   -1.229961281355   -3.297775933474    3.024079097385
 H   -0.916152998385   -4.344454665964    3.027458668076
 N   -0.217611838314   -2.389794976333    3.038050367660
 C   -0.529828582221   -1.078973893084    3.033403963760
 N    0.477798372581   -0.154475255779    2.991582126829
 H    1.409249909968   -0.485005364531    3.214040060962
 H    0.245060866554    0.805495499260    3.216392372269
 C   -1.895329423095   -0.702280039217    3.024632876045
 N   -2.518858734286    0.536685661413    3.034511085063
 C   -3.818784221443    0.228606273052    3.026056231905
 H   -4.628837750230    0.955187074154    3.030104369768
 H   -4.964146795381   -1.588663409582    3.003417841428
CS    1.932627262985    1.286933320858   -3.071899893829
