16

 N   -4.094181207396   -1.161918358934    3.151994009726
 C   -2.862055475129   -1.792208638942    3.152948970034
 N   -2.591914539003   -3.113094113910    3.149484781087
 C   -1.263785370540   -3.331288006660    3.165052209750
 H   -0.949977087570   -4.377966739150    3.168431780441
 N   -0.251435927499   -2.423307049519    3.179023480025
 C   -0.563652671406   -1.112485966270    3.174377076125
 N    0.443974283396   -0.187987328965    3.132555239194
 H    1.375425820783   -0.518517437717    3.355013173327
 H    0.211236777369    0.771983426074    3.357365484634
 C   -1.929153512280   -0.735792112403    3.165605988410
 N   -2.552682823471    0.503173588227    3.175484197428
 C   -3.852608310628    0.195094199866    3.167029344270
 H   -4.662661839415    0.921675000968    3.171077482133
 H   -4.997970884566   -1.622175482768    3.144390953793
CS    1.966998278037    1.320987274702   -3.215152501182
