16

 N   -4.161829385766   -1.228942505306    3.433940234456
 C   -2.929703653499   -1.859232785314    3.434895194764
 N   -2.659562717373   -3.180118260282    3.431431005817
 C   -1.331433548910   -3.398312153032    3.446998434480
 H   -1.017625265940   -4.444990885522    3.450378005171
 N   -0.319084105869   -2.490331195891    3.460969704755
 C   -0.631300849776   -1.179510112642    3.456323300855
 N    0.376326105026   -0.255011475337    3.414501463924
 H    1.307777642413   -0.585541584089    3.636959398057
 H    0.143588598999    0.704959279702    3.639311709364
 C   -1.996801690650   -0.802816258775    3.447552213140
 N   -2.620331001841    0.436149441855    3.457430422158
 C   -3.920256488998    0.128070053494    3.448975569000
 H   -4.730310017785    0.854650854596    3.453023706863
 H   -5.065619062936   -1.689199629140    3.426337178523
CS    2.035740308142    1.389095182390   -3.501657715889
