16

 N   -4.184378778556   -1.251283887430    3.527922309366
 C   -2.952253046289   -1.881574167438    3.528877269674
 N   -2.682112110163   -3.202459642406    3.525413080727
 C   -1.353982941700   -3.420653535156    3.540980509390
 H   -1.040174658730   -4.467332267646    3.544360080081
 N   -0.341633498659   -2.512672578015    3.554951779665
 C   -0.653850242566   -1.201851494766    3.550305375765
 N    0.353776712236   -0.277352857461    3.508483538834
 H    1.285228249623   -0.607882966213    3.730941472967
 H    0.121039206209    0.682617897578    3.733293784274
 C   -2.019351083440   -0.825157640899    3.541534288050
 N   -2.642880394631    0.413808059731    3.551412497068
 C   -3.942805881788    0.105728671370    3.542957643910
 H   -4.752859410575    0.832309472472    3.547005781773
 H   -5.088168455726   -1.711541011264    3.520319253433
CS    2.058654318177    1.411797818286   -3.597159454125
