16

 N   -4.229477564136   -1.295966651678    3.715886459186
 C   -2.997351831869   -1.926256931686    3.716841419494
 N   -2.727210895743   -3.247142406654    3.713377230547
 C   -1.399081727280   -3.465336299404    3.728944659210
 H   -1.085273444310   -4.512015031894    3.732324229901
 N   -0.386732284239   -2.557355342263    3.742915929485
 C   -0.698949028146   -1.246534259014    3.738269525585
 N    0.308677926656   -0.322035621709    3.696447688654
 H    1.240129464043   -0.652565730461    3.918905622787
 H    0.075940420629    0.637935133330    3.921257934094
 C   -2.064449869020   -0.869840405147    3.729498437870
 N   -2.687979180211    0.369125295483    3.739376646888
 C   -3.987904667368    0.061045907122    3.730921793730
 H   -4.797958196155    0.787626708224    3.734969931593
 H   -5.133267241306   -1.756223775512    3.708283403253
CS    2.104482338248    1.457203090077   -3.788162930596
