16

 N   -4.240752260531   -1.307137342740    3.762877496641
 C   -3.008626528264   -1.937427622748    3.763832456949
 N   -2.738485592138   -3.258313097716    3.760368268002
 C   -1.410356423675   -3.476506990466    3.775935696665
 H   -1.096548140705   -4.523185722956    3.779315267356
 N   -0.398006980634   -2.568526033325    3.789906966940
 C   -0.710223724541   -1.257704950076    3.785260563040
 N    0.297403230261   -0.333206312771    3.743438726109
 H    1.228854767648   -0.663736421523    3.965896660242
 H    0.064665724234    0.626764442268    3.968248971549
 C   -2.075724565415   -0.881011096209    3.776489475325
 N   -2.699253876606    0.357954604421    3.786367684343
 C   -3.999179363763    0.049875216060    3.777912831185
 H   -4.809232892550    0.776456017162    3.781960969048
 H   -5.144541937701   -1.767394466574    3.755274440708
CS    2.115939343265    1.468554408025   -3.835913799713
