16

 N   -4.252026956926   -1.318308033802    3.809868534096
 C   -3.019901224659   -1.948598313810    3.810823494404
 N   -2.749760288533   -3.269483788778    3.807359305457
 C   -1.421631120070   -3.487677681528    3.822926734120
 H   -1.107822837100   -4.534356414018    3.826306304811
 N   -0.409281677029   -2.579696724387    3.836898004395
 C   -0.721498420936   -1.268875641138    3.832251600495
 N    0.286128533866   -0.344377003833    3.790429763564
 H    1.217580071253   -0.674907112585    4.012887697697
 H    0.053391027839    0.615593751206    4.015240009004
 C   -2.086999261810   -0.892181787271    3.823480512780
 N   -2.710528573001    0.346783913359    3.833358721798
 C   -4.010454060158    0.038704524998    3.824903868640
 H   -4.820507588945    0.765285326100    3.828952006503
 H   -5.155816634096   -1.778565157636    3.802265478163
CS    2.127396348283    1.479905725973   -3.883664668831
