16

 N   -4.319675135296   -1.385332180174    4.091814758826
 C   -3.087549403029   -2.015622460182    4.092769719134
 N   -2.817408466903   -3.336507935150    4.089305530187
 C   -1.489279298440   -3.554701827900    4.104872958850
 H   -1.175471015470   -4.601380560390    4.108252529541
 N   -0.476929855399   -2.646720870759    4.118844229125
 C   -0.789146599306   -1.335899787510    4.114197825225
 N    0.218480355496   -0.411401150205    4.072375988294
 H    1.149931892883   -0.741931258957    4.294833922427
 H   -0.014257150531    0.548569604834    4.297186233734
 C   -2.154647440180   -0.959205933643    4.105426737510
 N   -2.778176751371    0.279759766987    4.115304946528
 C   -4.078102238528   -0.028319621374    4.106850093370
 H   -4.888155767315    0.698261179728    4.110898231233
 H   -5.223464812466   -1.845589304008    4.084211702893
CS    2.196138378388    1.548013633661   -4.170169883538
