16

 N   -4.398598010061   -1.463527017608    4.420752021012
 C   -3.166472277794   -2.093817297616    4.421706981320
 N   -2.896331341668   -3.414702772584    4.418242792373
 C   -1.568202173205   -3.632896665334    4.433810221036
 H   -1.254393890235   -4.679575397824    4.437189791727
 N   -0.555852730164   -2.724915708193    4.447781491311
 C   -0.868069474071   -1.414094624944    4.443135087411
 N    0.139557480731   -0.489595987639    4.401313250480
 H    1.071009018118   -0.820126096391    4.623771184613
 H   -0.093180025296    0.470374767400    4.626123495920
 C   -2.233570314945   -1.037400771077    4.434363999696
 N   -2.857099626136    0.201564929553    4.444242208714
 C   -4.157025113293   -0.106514458808    4.435787355556
 H   -4.967078642080    0.620066342294    4.439835493419
 H   -5.302387687231   -1.923784141442    4.413148965079
CS    2.276337413511    1.627472859297   -4.504425967362
