16

 N   -4.421147402851   -1.485868399732    4.514734095922
 C   -3.189021670584   -2.116158679740    4.515689056230
 N   -2.918880734458   -3.437044154708    4.512224867283
 C   -1.590751565995   -3.655238047458    4.527792295946
 H   -1.276943283025   -4.701916779948    4.531171866637
 N   -0.578402122954   -2.747257090317    4.541763566221
 C   -0.890618866861   -1.436436007068    4.537117162321
 N    0.117008087941   -0.511937369763    4.495295325390
 H    1.048459625328   -0.842467478515    4.717753259523
 H   -0.115729418086    0.448033385276    4.720105570830
 C   -2.256119707735   -1.059742153201    4.528346074606
 N   -2.879649018926    0.179223547429    4.538224283624
 C   -4.179574506083   -0.128855840932    4.529769430466
 H   -4.989628034870    0.597724960170    4.533817568329
 H   -5.324937080021   -1.946125523566    4.507131039989
CS    2.299251423546    1.650175495193   -4.599927705598
