16

 N   -4.454971492036   -1.519380472918    4.655707208287
 C   -3.222845759769   -2.149670752926    4.656662168595
 N   -2.952704823643   -3.470556227894    4.653197979648
 C   -1.624575655180   -3.688750120644    4.668765408311
 H   -1.310767372210   -4.735428853134    4.672144979002
 N   -0.612226212139   -2.780769163503    4.682736678586
 C   -0.924442956046   -1.469948080254    4.678090274686
 N    0.083183998756   -0.545449442949    4.636268437755
 H    1.014635536143   -0.875979551701    4.858726371888
 H   -0.149553507271    0.414521312090    4.861078683195
 C   -2.289943796920   -1.093254226387    4.669319186971
 N   -2.913473108111    0.145711474243    4.679197395989
 C   -4.213398595268   -0.162367914118    4.670742542831
 H   -5.023452124055    0.564212886984    4.674790680694
 H   -5.358761169206   -1.979637596752    4.648104152354
CS    2.333622438598    1.684229449037   -4.743180312951
