14

 P   -0.084230318403    0.009887077881   -0.500002342059
 O   -0.671230318403    1.059887077881    0.454997657941
 O   -0.350230318403    0.057887077881   -2.012002342059
 O    1.578769681597   -0.164112922119   -0.213002342059
 O   -0.399230318403   -1.548112922119    0.091997657941
 C    2.315769681597    1.000887077881   -0.590002342059
 H    1.984769681597    1.883887077881   -0.014002342059
 H    2.200769681597    1.211887077881   -1.668002342059
 H    3.375769681597    0.798887077881   -0.370002342059
 C   -1.790230318403   -1.871112922119    0.041997657941
 H   -2.168230318403   -1.844112922119   -0.996002342059
 H   -2.383230318403   -1.172112922119    0.657997657941
 H   -1.900230318403   -2.891112922119    0.441997657941
 K   -0.188490772671    0.556238173676    1.305468299574
