14

 P   -0.105087793900    0.031647973112   -0.536748183011
 O   -0.692087793900    1.081647973112    0.418251816989
 O   -0.371087793900    0.079647973112   -2.048748183011
 O    1.557912206100   -0.142352026888   -0.249748183011
 O   -0.420087793900   -1.526352026888    0.055251816989
 C    2.294912206100    1.022647973112   -0.626748183011
 H    1.963912206100    1.905647973112   -0.050748183011
 H    2.179912206100    1.233647973112   -1.704748183011
 H    3.354912206100    0.820647973112   -0.406748183011
 C   -1.811087793900   -1.849352026888    0.005251816989
 H   -2.189087793900   -1.822352026888   -1.032748183011
 H   -2.404087793900   -1.150352026888    0.621251816989
 H   -1.921087793900   -2.869352026888    0.405251816989
 K   -0.121577421672    0.486426540869    1.423353484373
