14

 P   -0.125945269397    0.053408868343   -0.573494023964
 O   -0.712945269397    1.103408868343    0.381505976036
 O   -0.391945269397    0.101408868343   -2.085494023964
 O    1.537054730603   -0.120591131657   -0.286494023964
 O   -0.440945269397   -1.504591131657    0.018505976036
 C    2.274054730603    1.044408868343   -0.663494023964
 H    1.943054730603    1.927408868343   -0.087494023964
 H    2.159054730603    1.255408868343   -1.741494023964
 H    3.334054730603    0.842408868343   -0.443494023964
 C   -1.831945269397   -1.827591131657   -0.031494023964
 H   -2.209945269397   -1.800591131657   -1.069494023964
 H   -2.424945269397   -1.128591131657    0.584505976036
 H   -1.941945269397   -2.847591131657    0.368505976036
 K   -0.054664070672    0.416614908063    1.541238669173
