14

 P   -0.136374007145    0.064289315959   -0.591866944440
 O   -0.723374007145    1.114289315959    0.363133055560
 O   -0.402374007145    0.112289315959   -2.103866944440
 O    1.526625992855   -0.109710684041   -0.304866944440
 O   -0.451374007145   -1.493710684041    0.000133055560
 C    2.263625992855    1.055289315959   -0.681866944440
 H    1.932625992855    1.938289315959   -0.105866944440
 H    2.148625992855    1.266289315959   -1.759866944440
 H    3.323625992855    0.853289315959   -0.461866944440
 C   -1.842374007145   -1.816710684041   -0.049866944440
 H   -2.220374007145   -1.789710684041   -1.087866944440
 H   -2.435374007145   -1.117710684041    0.566133055560
 H   -1.952374007145   -2.836710684041    0.350133055560
 K   -0.021207395173    0.381709091660    1.600181261572
