14

 P   -0.146802744894    0.075169763574   -0.610239864916
 O   -0.733802744894    1.125169763574    0.344760135084
 O   -0.412802744894    0.123169763574   -2.122239864916
 O    1.516197255106   -0.098830236426   -0.323239864916
 O   -0.461802744894   -1.482830236426   -0.018239864916
 C    2.253197255106    1.066169763574   -0.700239864916
 H    1.922197255106    1.949169763574   -0.124239864916
 H    2.138197255106    1.277169763574   -1.778239864916
 H    3.313197255106    0.864169763574   -0.480239864916
 C   -1.852802744894   -1.805830236426   -0.068239864916
 H   -2.230802744894   -1.778830236426   -1.106239864916
 H   -2.445802744894   -1.106830236426    0.547760135084
 H   -1.962802744894   -2.825830236426    0.331760135084
 K    0.012249280327    0.346803275257    1.659123853972
