14

 P   -1.012387978019    0.978246915665   -2.135192264434
 O   -1.599387978019    2.028246915665   -1.180192264434
 O   -1.278387978019    1.026246915665   -3.647192264434
 O    0.650612021981    0.804246915665   -1.848192264434
 O   -1.327387978019   -0.579753084335   -1.543192264434
 C    1.387612021981    1.969246915665   -2.225192264434
 H    1.056612021981    2.852246915665   -1.649192264434
 H    1.272612021981    2.180246915665   -3.303192264434
 H    2.447612021981    1.767246915665   -2.005192264434
 C   -2.718387978019   -0.902753084335   -1.593192264434
 H   -3.096387978019   -0.875753084335   -2.631192264434
 H   -3.311387978019   -0.203753084335   -0.977192264434
 H   -2.828387978019   -1.922753084335   -1.193192264434
 K    2.789153346808   -2.550379486203    6.551359023141
