14

 P   -0.188517695888    0.118691554036   -0.683731546820
 O   -0.775517695888    1.168691554036    0.271268453180
 O   -0.454517695888    0.166691554036   -2.195731546820
 O    1.474482304112   -0.055308445964   -0.396731546820
 O   -0.503517695888   -1.439308445964   -0.091731546820
 C    2.211482304112    1.109691554036   -0.773731546820
 H    1.880482304112    1.992691554036   -0.197731546820
 H    2.096482304112    1.320691554036   -1.851731546820
 H    3.271482304112    0.907691554036   -0.553731546820
 C   -1.894517695888   -1.762308445964   -0.141731546820
 H   -2.272517695888   -1.735308445964   -1.179731546820
 H   -2.487517695888   -1.063308445964    0.474268453180
 H   -2.004517695888   -2.782308445964    0.258268453180
 K    0.146075982326    0.207180009644    1.894894223570
