14

 P   -0.209375171385    0.140452449267   -0.720477387773
 O   -0.796375171385    1.190452449267    0.234522612227
 O   -0.475375171385    0.188452449267   -2.232477387773
 O    1.453624828615   -0.033547550733   -0.433477387773
 O   -0.524375171385   -1.417547550733   -0.128477387773
 C    2.190624828615    1.131452449267   -0.810477387773
 H    1.859624828615    2.014452449267   -0.234477387773
 H    2.075624828615    1.342452449267   -1.888477387773
 H    3.250624828615    0.929452449267   -0.590477387773
 C   -1.915375171385   -1.740547550733   -0.178477387773
 H   -2.293375171385   -1.713547550733   -1.216477387773
 H   -2.508375171385   -1.041547550733    0.437522612227
 H   -2.025375171385   -2.760547550733    0.221522612227
 K    0.212989333326    0.137368376838    2.012779408370
