14

 P   -0.219803909133    0.151332896883   -0.738850308249
 O   -0.806803909133    1.201332896883    0.216149691751
 O   -0.485803909133    0.199332896883   -2.250850308249
 O    1.443196090867   -0.022667103117   -0.451850308249
 O   -0.534803909133   -1.406667103117   -0.146850308249
 C    2.180196090867    1.142332896883   -0.828850308249
 H    1.849196090867    2.025332896883   -0.252850308249
 H    2.065196090867    1.353332896883   -1.906850308249
 H    3.240196090867    0.940332896883   -0.608850308249
 C   -1.925803909133   -1.729667103117   -0.196850308249
 H   -2.303803909133   -1.702667103117   -1.234850308249
 H   -2.518803909133   -1.030667103117    0.419149691751
 H   -2.035803909133   -2.749667103117    0.203149691751
 K    0.246446008826    0.102462560435    2.071722000769
