14

 P   -0.251090122379    0.183974239730   -0.793969069677
 O   -0.838090122379    1.233974239730    0.161030930323
 O   -0.517090122379    0.231974239730   -2.305969069677
 O    1.411909877621    0.009974239730   -0.506969069677
 O   -0.566090122379   -1.374025760270   -0.201969069677
 C    2.148909877621    1.174974239730   -0.883969069677
 H    1.817909877621    2.057974239730   -0.307969069677
 H    2.033909877621    1.385974239730   -1.961969069677
 H    3.208909877621    0.972974239730   -0.663969069677
 C   -1.957090122379   -1.697025760270   -0.251969069677
 H   -2.335090122379   -1.670025760270   -1.289969069677
 H   -2.550090122379   -0.998025760270    0.364030930323
 H   -2.067090122379   -2.717025760270    0.148030930323
 K    0.346816035325   -0.002254888774    2.248549777968
