14

 P   -0.292805073373    0.227496030192   -0.867460751582
 O   -0.879805073373    1.277496030192    0.087539248418
 O   -0.558805073373    0.275496030192   -2.379460751582
 O    1.370194926627    0.053496030192   -0.580460751582
 O   -0.607805073373   -1.330503969808   -0.275460751582
 C    2.107194926627    1.218496030192   -0.957460751582
 H    1.776194926627    2.101496030192   -0.381460751582
 H    1.992194926627    1.429496030192   -2.035460751582
 H    3.167194926627    1.016496030192   -0.737460751582
 C   -1.998805073373   -1.653503969808   -0.325460751582
 H   -2.376805073373   -1.626503969808   -1.363460751582
 H   -2.591805073373   -0.954503969808    0.290539248418
 H   -2.108805073373   -2.673503969808    0.074539248418
 K    0.480642737324   -0.141878154387    2.484320147567
