14

 P   -0.355377499864    0.292778715885   -0.977698274438
 O   -0.942377499864    1.342778715885   -0.022698274438
 O   -0.621377499864    0.340778715885   -2.489698274438
 O    1.307622500136    0.118778715885   -0.690698274438
 O   -0.670377499864   -1.265221284115   -0.385698274438
 C    2.044622500136    1.283778715885   -1.067698274438
 H    1.713622500136    2.166778715885   -0.491698274438
 H    1.929622500136    1.494778715885   -2.145698274438
 H    3.104622500136    1.081778715885   -0.847698274438
 C   -2.061377499864   -1.588221284115   -0.435698274438
 H   -2.439377499864   -1.561221284115   -1.473698274438
 H   -2.654377499864   -0.889221284115    0.180301725562
 H   -2.171377499864   -2.608221284115   -0.035698274438
 K    0.681382790323   -0.351313052806    2.837975701965
