14

 P   -0.376234975361    0.314539611116   -1.014444115391
 O   -0.963234975361    1.364539611116   -0.059444115391
 O   -0.642234975361    0.362539611116   -2.526444115391
 O    1.286765024639    0.140539611116   -0.727444115391
 O   -0.691234975361   -1.243460388884   -0.422444115391
 C    2.023765024639    1.305539611116   -1.104444115391
 H    1.692765024639    2.188539611116   -0.528444115391
 H    1.908765024639    1.516539611116   -2.182444115391
 H    3.083765024639    1.103539611116   -0.884444115391
 C   -2.082234975361   -1.566460388884   -0.472444115391
 H   -2.460234975361   -1.539460388884   -1.510444115391
 H   -2.675234975361   -0.867460388884    0.143555884609
 H   -2.192234975361   -2.586460388884   -0.072444115391
 K    0.748296141322   -0.421124685612    2.955860886764
