14

 P   -0.386663713109    0.325420058732   -1.032817035867
 O   -0.973663713109    1.375420058732   -0.077817035867
 O   -0.652663713109    0.373420058732   -2.544817035867
 O    1.276336286891    0.151420058732   -0.745817035867
 O   -0.701663713109   -1.232579941268   -0.440817035867
 C    2.013336286891    1.316420058732   -1.122817035867
 H    1.682336286891    2.199420058732   -0.546817035867
 H    1.898336286891    1.527420058732   -2.200817035867
 H    3.073336286891    1.114420058732   -0.902817035867
 C   -2.092663713109   -1.555579941268   -0.490817035867
 H   -2.470663713109   -1.528579941268   -1.528817035867
 H   -2.685663713109   -0.856579941268    0.125182964133
 H   -2.202663713109   -2.575579941268   -0.090817035867
 K    0.781752816822   -0.456030502015    3.014803479163
