14

 P   -0.438807401852    0.379822296809   -1.124681638247
 O   -1.025807401852    1.429822296810   -0.169681638247
 O   -0.704807401852    0.427822296809   -2.636681638247
 O    1.224192598148    0.205822296809   -0.837681638247
 O   -0.753807401852   -1.178177703191   -0.532681638247
 C    1.961192598148    1.370822296809   -1.214681638247
 H    1.630192598148    2.253822296809   -0.638681638247
 H    1.846192598148    1.581822296809   -2.292681638247
 H    3.021192598148    1.168822296809   -0.994681638247
 C   -2.144807401852   -1.501177703191   -0.582681638247
 H   -2.522807401852   -1.474177703191   -1.620681638247
 H   -2.737807401852   -0.802177703191    0.033318361753
 H   -2.254807401852   -2.521177703191   -0.182681638247
 K    0.949036194321   -0.630559584031    3.309516441162
