14

 P   -0.449236139600    0.390702744425   -1.143054558723
 O   -1.036236139600    1.440702744425   -0.188054558723
 O   -0.715236139600    0.438702744425   -2.655054558723
 O    1.213763860400    0.216702744425   -0.856054558723
 O   -0.764236139600   -1.167297255575   -0.551054558723
 C    1.950763860400    1.381702744425   -1.233054558723
 H    1.619763860400    2.264702744425   -0.657054558723
 H    1.835763860400    1.592702744425   -2.311054558723
 H    3.010763860400    1.179702744425   -1.013054558723
 C   -2.155236139600   -1.490297255575   -0.601054558723
 H   -2.533236139600   -1.463297255575   -1.639054558723
 H   -2.748236139600   -0.791297255575    0.014945441277
 H   -2.265236139600   -2.510297255575   -0.201054558723
 K    0.982492869821   -0.665465400434    3.368459033561
