14

 P   -0.490951090594    0.434224534887   -1.216546240628
 O   -1.077951090594    1.484224534887   -0.261546240628
 O   -0.756951090594    0.482224534887   -2.728546240628
 O    1.172048909406    0.260224534887   -0.929546240628
 O   -0.805951090594   -1.123775465113   -0.624546240628
 C    1.909048909406    1.425224534887   -1.306546240628
 H    1.578048909406    2.308224534887   -0.730546240628
 H    1.794048909406    1.636224534887   -2.384546240628
 H    2.969048909406    1.223224534887   -1.086546240628
 C   -2.196951090594   -1.446775465113   -0.674546240628
 H   -2.574951090594   -1.419775465113   -1.712546240628
 H   -2.789951090594   -0.747775465113   -0.058546240628
 H   -2.306951090594   -2.466775465113   -0.274546240628
 K    1.116319571820   -0.805088666046    3.604229403160
