14

 P   -0.522237303840    0.466865877734   -1.271665002056
 O   -1.109237303840    1.516865877734   -0.316665002056
 O   -0.788237303840    0.514865877734   -2.783665002056
 O    1.140762696160    0.292865877734   -0.984665002056
 O   -0.837237303840   -1.091134122266   -0.679665002056
 C    1.877762696160    1.457865877734   -1.361665002056
 H    1.546762696160    2.340865877734   -0.785665002056
 H    1.762762696160    1.668865877734   -2.439665002056
 H    2.937762696160    1.255865877734   -1.141665002056
 C   -2.228237303840   -1.414134122266   -0.729665002056
 H   -2.606237303840   -1.387134122266   -1.767665002056
 H   -2.821237303840   -0.715134122266   -0.113665002056
 H   -2.338237303840   -2.434134122266   -0.329665002056
 K    1.216689598319   -0.909806115256    3.781057180359
