14

 P   -0.532666041588    0.477746325349   -1.290037922532
 O   -1.119666041588    1.527746325349   -0.335037922532
 O   -0.798666041588    0.525746325349   -2.802037922532
 O    1.130333958412    0.303746325349   -1.003037922532
 O   -0.847666041588   -1.080253674651   -0.698037922532
 C    1.867333958412    1.468746325349   -1.380037922532
 H    1.536333958412    2.351746325349   -0.804037922532
 H    1.752333958412    1.679746325349   -2.458037922532
 H    2.927333958412    1.266746325349   -1.160037922532
 C   -2.238666041588   -1.403253674651   -0.748037922532
 H   -2.616666041588   -1.376253674651   -1.786037922532
 H   -2.831666041588   -0.704253674651   -0.132037922532
 H   -2.348666041588   -2.423253674651   -0.348037922532
 K    1.250146273819   -0.944711931659    3.839999772758
