14

 P   -0.553523517085    0.499507220581   -1.326783763485
 O   -1.140523517085    1.549507220581   -0.371783763485
 O   -0.819523517085    0.547507220581   -2.838783763485
 O    1.109476482915    0.325507220581   -1.039783763485
 O   -0.868523517085   -1.058492779419   -0.734783763485
 C    1.846476482915    1.490507220581   -1.416783763485
 H    1.515476482915    2.373507220581   -0.840783763485
 H    1.731476482915    1.701507220581   -2.494783763485
 H    2.906476482915    1.288507220581   -1.196783763485
 C   -2.259523517085   -1.381492779419   -0.784783763485
 H   -2.637523517085   -1.354492779419   -1.822783763485
 H   -2.852523517085   -0.682492779419   -0.168783763485
 H   -2.369523517085   -2.401492779419   -0.384783763485
 K    1.317059624818   -1.014523564465    3.957884957558
