14

 P   -0.563952254834    0.510387668196   -1.345156683961
 O   -1.150952254834    1.560387668196   -0.390156683961
 O   -0.829952254834    0.558387668196   -2.857156683961
 O    1.099047745166    0.336387668196   -1.058156683961
 O   -0.878952254834   -1.047612331804   -0.753156683961
 C    1.836047745166    1.501387668196   -1.435156683961
 H    1.505047745166    2.384387668196   -0.859156683961
 H    1.721047745166    1.712387668196   -2.513156683961
 H    2.896047745166    1.299387668196   -1.215156683961
 C   -2.269952254834   -1.370612331804   -0.803156683961
 H   -2.647952254834   -1.343612331804   -1.841156683961
 H   -2.862952254834   -0.671612331804   -0.187156683961
 H   -2.379952254834   -2.390612331804   -0.403156683961
 K    1.350516300318   -1.049429380868    4.016827549957
