14

 P   -0.595238468079    0.543029011043   -1.400275445389
 O   -1.182238468079    1.593029011043   -0.445275445389
 O   -0.861238468079    0.591029011043   -2.912275445389
 O    1.067761531921    0.369029011043   -1.113275445389
 O   -0.910238468079   -1.014970988957   -0.808275445389
 C    1.804761531921    1.534029011043   -1.490275445389
 H    1.473761531921    2.417029011043   -0.914275445389
 H    1.689761531921    1.745029011043   -2.568275445389
 H    2.864761531921    1.332029011043   -1.270275445389
 C   -2.301238468079   -1.337970988957   -0.858275445389
 H   -2.679238468079   -1.310970988957   -1.896275445389
 H   -2.894238468079   -0.638970988957   -0.242275445389
 H   -2.411238468079   -2.357970988957   -0.458275445389
 K    1.450886326817   -1.154146830078    4.193655327156
