14

 P   -0.636953419073    0.586550801505   -1.473767127294
 O   -1.223953419073    1.636550801505   -0.518767127294
 O   -0.902953419073    0.634550801505   -2.985767127294
 O    1.026046580927    0.412550801505   -1.186767127294
 O   -0.951953419073   -0.971449198495   -0.881767127294
 C    1.763046580927    1.577550801505   -1.563767127294
 H    1.432046580927    2.460550801505   -0.987767127294
 H    1.648046580927    1.788550801505   -2.641767127294
 H    2.823046580927    1.375550801505   -1.343767127294
 C   -2.342953419073   -1.294449198495   -0.931767127294
 H   -2.720953419073   -1.267449198495   -1.969767127294
 H   -2.935953419073   -0.595449198495   -0.315767127294
 H   -2.452953419073   -2.314449198495   -0.531767127294
 K    1.584713028816   -1.293770095690    4.429425696755
