14

 P   -0.678668370067    0.630072591967   -1.547258809198
 O   -1.265668370067    1.680072591967   -0.592258809198
 O   -0.944668370067    0.678072591967   -3.059258809198
 O    0.984331629933    0.456072591967   -1.260258809198
 O   -0.993668370067   -0.927927408033   -0.955258809198
 C    1.721331629933    1.621072591967   -1.637258809198
 H    1.390331629933    2.504072591967   -1.061258809198
 H    1.606331629933    1.832072591967   -2.715258809198
 H    2.781331629933    1.419072591967   -1.417258809198
 C   -2.384668370067   -1.250927408033   -1.005258809198
 H   -2.762668370067   -1.223927408033   -2.043258809198
 H   -2.977668370067   -0.551927408033   -0.389258809198
 H   -2.494668370067   -2.270927408033   -0.605258809198
 K    1.718539730816   -1.433393361303    4.665196066353
