14

 P   -0.730812058810    0.684474830045   -1.639123411579
 O   -1.317812058810    1.734474830045   -0.684123411579
 O   -0.996812058810    0.732474830045   -3.151123411579
 O    0.932187941190    0.510474830045   -1.352123411579
 O   -1.045812058810   -0.873525169955   -1.047123411579
 C    1.669187941190    1.675474830045   -1.729123411579
 H    1.338187941190    2.558474830045   -1.153123411579
 H    1.554187941190    1.886474830045   -2.807123411579
 H    2.729187941190    1.473474830045   -1.509123411579
 C   -2.436812058810   -1.196525169955   -1.097123411579
 H   -2.814812058810   -1.169525169955   -2.135123411579
 H   -3.029812058810   -0.497525169955   -0.481123411579
 H   -2.546812058810   -2.216525169955   -0.697123411579
 K    1.885823108314   -1.607922443318    4.959909028351
