14

 P   -0.741240796558    0.695355277660   -1.657496332055
 O   -1.328240796558    1.745355277660   -0.702496332055
 O   -1.007240796558    0.743355277660   -3.169496332055
 O    0.921759203442    0.521355277660   -1.370496332055
 O   -1.056240796558   -0.862644722340   -1.065496332055
 C    1.658759203442    1.686355277660   -1.747496332055
 H    1.327759203442    2.569355277660   -1.171496332055
 H    1.543759203442    1.897355277660   -2.825496332055
 H    2.718759203442    1.484355277660   -1.527496332055
 C   -2.447240796558   -1.185644722340   -1.115496332055
 H   -2.825240796558   -1.158644722340   -2.153496332055
 H   -3.040240796558   -0.486644722340   -0.499496332055
 H   -2.557240796558   -2.205644722340   -0.715496332055
 K    1.919279783814   -1.642828259721    5.018851620751
