14

 P   -0.751669534307    0.706235725276   -1.675869252531
 O   -1.338669534307    1.756235725276   -0.720869252531
 O   -1.017669534307    0.754235725276   -3.187869252531
 O    0.911330465693    0.532235725276   -1.388869252531
 O   -1.066669534307   -0.851764274724   -1.083869252531
 C    1.648330465693    1.697235725276   -1.765869252531
 H    1.317330465693    2.580235725276   -1.189869252531
 H    1.533330465693    1.908235725276   -2.843869252531
 H    2.708330465693    1.495235725276   -1.545869252531
 C   -2.457669534307   -1.174764274724   -1.133869252531
 H   -2.835669534307   -1.147764274724   -2.171869252531
 H   -3.050669534307   -0.475764274724   -0.517869252531
 H   -2.567669534307   -2.194764274724   -0.733869252531
 K    1.952736459314   -1.677734076125    5.077794213151
