14

 P   -0.793384485301    0.749757515738   -1.749360934435
 O   -1.380384485301    1.799757515738   -0.794360934435
 O   -1.059384485301    0.797757515738   -3.261360934435
 O    0.869615514699    0.575757515738   -1.462360934435
 O   -1.108384485301   -0.808242484262   -1.157360934435
 C    1.606615514699    1.740757515738   -1.839360934435
 H    1.275615514699    2.623757515738   -1.263360934435
 H    1.491615514699    1.951757515738   -2.917360934435
 H    2.666615514699    1.538757515738   -1.619360934435
 C   -2.499384485301   -1.131242484262   -1.207360934435
 H   -2.877384485301   -1.104242484262   -2.245360934435
 H   -3.092384485301   -0.432242484262   -0.591360934435
 H   -2.609384485301   -2.151242484262   -0.807360934435
 K    2.086563161313   -1.817357341737    5.313564582749
