14

 P   -0.824670698546    0.782398858585   -1.804479695864
 O   -1.411670698546    1.832398858585   -0.849479695864
 O   -1.090670698546    0.830398858585   -3.316479695864
 O    0.838329301454    0.608398858585   -1.517479695864
 O   -1.139670698546   -0.775601141415   -1.212479695864
 C    1.575329301454    1.773398858585   -1.894479695864
 H    1.244329301454    2.656398858585   -1.318479695864
 H    1.460329301454    1.984398858585   -2.972479695864
 H    2.635329301454    1.571398858585   -1.674479695864
 C   -2.530670698546   -1.098601141415   -1.262479695864
 H   -2.908670698546   -1.071601141415   -2.300479695864
 H   -3.123670698546   -0.399601141415   -0.646479695864
 H   -2.640670698546   -2.118601141415   -0.862479695864
 K    2.186933187812   -1.922074790946    5.490392359948
