14

 P   -0.855956911792    0.815040201431   -1.859598457292
 O   -1.442956911792    1.865040201431   -0.904598457292
 O   -1.121956911792    0.863040201431   -3.371598457292
 O    0.807043088208    0.641040201431   -1.572598457292
 O   -1.170956911792   -0.742959798569   -1.267598457292
 C    1.544043088208    1.806040201431   -1.949598457292
 H    1.213043088208    2.689040201431   -1.373598457292
 H    1.429043088208    2.017040201431   -3.027598457292
 H    2.604043088208    1.604040201431   -1.729598457292
 C   -2.561956911792   -1.065959798569   -1.317598457292
 H   -2.939956911792   -1.038959798569   -2.355598457292
 H   -3.154956911792   -0.366959798569   -0.701598457292
 H   -2.671956911792   -2.085959798569   -0.917598457292
 K    2.287303214312   -2.026792240156    5.667220137147
