14

 P   -0.960244289277    0.923844677587   -2.043327662053
 O   -1.547244289277    1.973844677587   -1.088327662053
 O   -1.226244289277    0.971844677587   -3.555327662053
 O    0.702755710723    0.749844677587   -1.756327662053
 O   -1.275244289277   -0.634155322413   -1.451327662053
 C    1.439755710723    1.914844677587   -2.133327662053
 H    1.108755710723    2.797844677587   -1.557327662053
 H    1.324755710723    2.125844677587   -3.211327662053
 H    2.499755710723    1.712844677587   -1.913327662053
 C   -2.666244289277   -0.957155322413   -1.501327662053
 H   -3.044244289277   -0.930155322413   -2.539327662053
 H   -3.259244289277   -0.258155322413   -0.885327662053
 H   -2.776244289277   -1.977155322413   -1.101327662053
 K    2.621869969309   -2.375850404187    6.256646061143
