27

 P   -4.111035671142    4.993120964821   -2.454624650059
 O   -4.613395671142    4.937790964821   -3.903064650059
 O   -3.236405671142    3.942040964821   -1.780034650059
 O   -3.310955671142    6.463190964821   -2.197094650059
 O   -5.470155671142    5.259560964821   -1.461684650059
 C   -4.001415671142    7.610080964821   -2.689404650059
 H   -4.873495671142    7.847400964821   -2.054324650059
 H   -4.339035671142    7.454540964821   -3.727174650059
 H   -3.299105671142    8.456990964821   -2.654274650059
 C   -6.711985671142    5.472560964821   -2.134504650059
 H   -6.989545671142    4.608420964821   -2.758094650059
 H   -6.683765671142    6.359090964821   -2.788504650059
 H   -7.471985671142    5.623070964821   -1.351514650059
CS    1.646884328858   -2.000249035179    0.983325349941
 P    2.359999184041   -2.866373613983    1.409113345672
 O    1.559920709383   -4.336449490102    1.151584619231
 O    3.719117400147   -3.132815927656    0.416171559547
 O    2.862370791422   -2.811044543906    2.857558577706
 O    1.485377021501   -1.815295501288    0.734522768575
 C    2.250381544353   -5.483329700598    1.643900994894
 H    3.122458521664   -5.720661081708    1.008809737211
 H    2.588003258785   -5.327792269753    2.681663546950
 H    1.548062685016   -6.330237487691    1.608772031341
 C    4.960946644060   -3.345818164279    1.088982007338
 H    5.238513052471   -2.481676741416    1.712566749144
 H    4.932728191709   -4.232354303750    1.742990809465
 H    5.720948564236   -3.496331055349    0.305995908451
