27

 P   -4.227434442940    5.134494877402   -2.524124253649
 O   -4.729794442940    5.079164877402   -3.972564253649
 O   -3.352804442940    4.083414877402   -1.849534253649
 O   -3.427354442940    6.604564877402   -2.266594253649
 O   -5.586554442940    5.400934877402   -1.531184253649
 C   -4.117814442940    7.751454877402   -2.758904253649
 H   -4.989894442940    7.988774877402   -2.123824253649
 H   -4.455434442940    7.595914877402   -3.796674253649
 H   -3.415504442940    8.598364877402   -2.723774253649
 C   -6.828384442940    5.613934877402   -2.204004253649
 H   -7.105944442940    4.749794877402   -2.827594253649
 H   -6.800164442940    6.500464877402   -2.858004253649
 H   -7.588384442940    5.764444877402   -1.421014253649
CS    1.530485557060   -1.858875122598    0.913825746351
 P    2.600157839834   -3.158061990805    1.552507739947
 O    1.800079365176   -4.628137866924    1.294979013507
 O    3.959276055941   -3.424504304477    0.559565953822
 O    3.102529447215   -3.102732920727    3.000952971981
 O    1.725535677295   -2.106983878109    0.877917162850
 C    2.490540200147   -5.775018077419    1.787295389169
 H    3.362617177457   -6.012349458529    1.152204131486
 H    2.828161914578   -5.619480646574    2.825057941225
 H    1.788221340809   -6.621925864512    1.752166425616
 C    5.201105299853   -3.637506541101    1.232376401614
 H    5.478671708264   -2.773365118237    1.855961143419
 H    5.172886847502   -4.524042680572    1.886385203740
 H    5.961107220030   -3.788019432171    0.449390302727
