27

 P   -5.818217657513    7.066605016011   -3.473952169379
 O   -6.320577657513    7.011275016011   -4.922392169379
 O   -4.943587657513    6.015525016011   -2.799362169379
 O   -5.018137657513    8.536675016011   -3.216422169379
 O   -7.177337657513    7.333045016011   -2.481012169379
 C   -5.708597657513    9.683565016011   -3.708732169379
 H   -6.580677657513    9.920885016011   -3.073652169379
 H   -6.046217657513    9.528025016011   -4.746502169379
 H   -5.006287657513   10.530475016011   -3.673602169379
 C   -8.419167657513    7.546045016011   -3.153832169379
 H   -8.696727657513    6.681905016011   -3.777422169379
 H   -8.390947657513    8.432575016011   -3.807832169379
 H   -9.179167657513    7.696555016011   -2.370842169379
CS   -0.060297657513    0.073235016011   -0.036002169379
 P    5.882326135678   -7.144469807361    3.512231128375
 O    5.082247661020   -8.614545683480    3.254702401934
 O    7.241444351785   -7.410912121033    2.519289342250
 O    6.384697743059   -7.089140737283    4.960676360409
 O    5.007703973138   -6.093391694665    2.837640551278
 C    5.772708495990   -9.761425893975    3.747018777597
 H    6.644785473301   -9.998757275085    3.111927519914
 H    6.110330210422   -9.605888463130    4.784781329653
 H    5.070389636653  -10.608333681068    3.711889814044
 C    8.483273595697   -7.623914357657    3.192099790041
 H    8.760840004108   -6.759772934793    3.815684531847
 H    8.455055143346   -8.510450497128    3.846108592168
 H    9.243275515873   -7.774427248727    2.409113691154
