27

 P   -4.305033624139    5.228744152456   -2.570457322709
 O   -4.807393624139    5.173414152456   -4.018897322709
 O   -3.430403624139    4.177664152456   -1.895867322709
 O   -3.504953624139    6.698814152456   -2.312927322709
 O   -5.664153624139    5.495184152456   -1.577517322709
 C   -4.195413624139    7.845704152456   -2.805237322709
 H   -5.067493624139    8.083024152456   -2.170157322709
 H   -4.533033624139    7.690164152456   -3.843007322709
 H   -3.493103624139    8.692614152456   -2.770107322709
 C   -6.905983624139    5.708184152456   -2.250337322709
 H   -7.183543624139    4.844044152456   -2.873927322709
 H   -6.877763624139    6.594714152456   -2.904337322709
 H   -7.665983624139    5.858694152456   -1.467347322709
CS    1.452886375861   -1.764625847544    0.867492677291
 P    2.760263610363   -3.352520908685    1.648104002797
 O    1.960185135705   -4.822596784804    1.390575276357
 O    4.119381826470   -3.618963222358    0.655162216673
 O    3.262635217744   -3.297191838608    3.096549234831
 O    1.885641447824   -2.301442795990    0.973513425701
 C    2.650645970676   -5.969476995300    1.882891652019
 H    3.522722947986   -6.206808376410    1.247800394336
 H    2.988267685107   -5.813939564455    2.920654204075
 H    1.948327111338   -6.816384782393    1.847762688466
 C    5.361211070382   -3.831965458981    1.327972664464
 H    5.638777478793   -2.967824036118    1.951557406269
 H    5.332992618031   -4.718501598452    1.981981466590
 H    6.121212990559   -3.982478350051    0.544986565577
