27

 P   -4.324433419439    5.252306471220   -2.582040589974
 O   -4.826793419439    5.196976471220   -4.030480589974
 O   -3.449803419439    4.201226471220   -1.907450589974
 O   -3.524353419439    6.722376471220   -2.324510589974
 O   -5.683553419439    5.518746471220   -1.589100589974
 C   -4.214813419439    7.869266471220   -2.816820589974
 H   -5.086893419439    8.106586471220   -2.181740589974
 H   -4.552433419439    7.713726471220   -3.854590589974
 H   -3.512503419439    8.716176471220   -2.781690589974
 C   -6.925383419439    5.731746471220   -2.261920589974
 H   -7.202943419439    4.867606471220   -2.885510589974
 H   -6.897163419439    6.618276471220   -2.915920589974
 H   -7.685383419439    5.882256471220   -1.478930589974
CS    1.433486580561   -1.741063528780    0.855909410026
 P    2.800290052995   -3.401135638156    1.672003068510
 O    2.000211578337   -4.871211514275    1.414474342069
 O    4.159408269102   -3.667577951828    0.679061282385
 O    3.302661660376   -3.345806568078    3.120448300543
 O    1.925667890456   -2.350057525460    0.997412491413
 C    2.690672413308   -6.018091724770    1.906790717732
 H    3.562749390618   -6.255423105880    1.271699460049
 H    3.028294127740   -5.862554293925    2.944553269788
 H    1.988353553971   -6.864999511863    1.871661754179
 C    5.401237513015   -3.880580188452    1.351871730176
 H    5.678803921425   -3.016438765588    1.975456471982
 H    5.373019060663   -4.767116327923    2.005880532303
 H    6.161239433191   -4.031093079522    0.568885631289
