27

 P   -4.363233010038    5.299431108747   -2.605207124504
 O   -4.865593010038    5.244101108747   -4.053647124504
 O   -3.488603010038    4.248351108747   -1.930617124504
 O   -3.563153010038    6.769501108747   -2.347677124504
 O   -5.722353010038    5.565871108747   -1.612267124504
 C   -4.253613010038    7.916391108747   -2.839987124504
 H   -5.125693010038    8.153711108747   -2.204907124504
 H   -4.591233010038    7.760851108747   -3.877757124504
 H   -3.551303010038    8.763301108747   -2.804857124504
 C   -6.964183010038    5.778871108747   -2.285087124504
 H   -7.241743010038    4.914731108747   -2.908677124504
 H   -6.935963010038    6.665401108747   -2.939087124504
 H   -7.724183010038    5.929381108747   -1.502097124504
CS    1.394686989962   -1.693938891253    0.832742875496
 P    2.880342938260   -3.498365097096    1.719801199935
 O    2.080264463602   -4.968440973215    1.462272473494
 O    4.239461154366   -3.764807410769    0.726859413810
 O    3.382714545641   -3.443036027019    3.168246431969
 O    2.005720775720   -2.447286984400    1.045210622838
 C    2.770725298572   -6.115321183711    1.954588849157
 H    3.642802275883   -6.352652564820    1.319497591474
 H    3.108347013004   -5.959783752866    2.992351401213
 H    2.068406439235   -6.962228970804    1.919459885604
 C    5.481290398279   -3.977809647392    1.399669861601
 H    5.758856806690   -3.113668224528    2.023254603407
 H    5.453071945928   -4.864345786863    2.053678663728
 H    6.241292318455   -4.128322538462    0.616683762714
