27

 P   -4.382632805338    5.322993427510   -2.616790391769
 O   -4.884992805338    5.267663427510   -4.065230391769
 O   -3.508002805338    4.271913427510   -1.942200391769
 O   -3.582552805338    6.793063427510   -2.359260391769
 O   -5.741752805338    5.589433427510   -1.623850391769
 C   -4.273012805338    7.939953427510   -2.851570391769
 H   -5.145092805338    8.177273427510   -2.216490391769
 H   -4.610632805338    7.784413427510   -3.889340391769
 H   -3.570702805338    8.786863427510   -2.816440391769
 C   -6.983582805338    5.802433427510   -2.296670391769
 H   -7.261142805338    4.938293427510   -2.920260391769
 H   -6.955362805338    6.688963427510   -2.950670391769
 H   -7.743582805338    5.952943427510   -1.513680391769
CS    1.375287194662   -1.670376572490    0.821159608231
 P    2.920369380892   -3.546979826566    1.743700265647
 O    2.120290906234   -5.017055702685    1.486171539207
 O    4.279487596999   -3.813422140239    0.750758479523
 O    3.422740988273   -3.491650756489    3.192145497681
 O    2.045747218353   -2.495901713871    1.069109688551
 C    2.810751741205   -6.163935913181    1.978487914869
 H    3.682828718515   -6.401267294290    1.343396657186
 H    3.148373455636   -6.008398482336    3.016250466926
 H    2.108432881867   -7.010843700274    1.943358951316
 C    5.521316840911   -4.026424376862    1.423568927314
 H    5.798883249322   -3.162282953998    2.047153669120
 H    5.493098388560   -4.912960516333    2.077577729440
 H    6.281318761087   -4.176937267932    0.640582828427
