27

 P   -4.421432395937    5.370118065037   -2.639956926299
 O   -4.923792395937    5.314788065037   -4.088396926299
 O   -3.546802395937    4.319038065037   -1.965366926299
 O   -3.621352395937    6.840188065037   -2.382426926299
 O   -5.780552395937    5.636558065037   -1.647016926299
 C   -4.311812395937    7.987078065037   -2.874736926299
 H   -5.183892395937    8.224398065037   -2.239656926299
 H   -4.649432395937    7.831538065037   -3.912506926299
 H   -3.609502395937    8.833988065037   -2.839606926299
 C   -7.022382395937    5.849558065037   -2.319836926299
 H   -7.299942395937    4.985418065037   -2.943426926299
 H   -6.994162395937    6.736088065037   -2.973836926299
 H   -7.782382395937    6.000068065037   -1.536846926299
CS    1.336487604063   -1.623251934963    0.797993073701
 P    3.000422266157   -3.644209285507    1.791498397072
 O    2.200343791499   -5.114285161626    1.533969670632
 O    4.359540482263   -3.910651599179    0.798556610948
 O    3.502793873538   -3.588880215429    3.239943629106
 O    2.125800103617   -2.593131172811    1.116907819976
 C    2.890804626469   -6.261165372121    2.026286046294
 H    3.762881603780   -6.498496753231    1.391194788611
 H    3.228426340901   -6.105627941276    3.064048598351
 H    2.188485767132   -7.108073159214    1.991157082741
 C    5.601369726176   -4.123653835803    1.471367058739
 H    5.878936134587   -3.259512412939    2.094951800545
 H    5.573151273824   -5.010189975274    2.125375860865
 H    6.361371646352   -4.274166726872    0.688380959852
