27

 P   -4.479631781836    5.440805021328   -2.674706728094
 O   -4.981991781836    5.385475021328   -4.123146728094
 O   -3.605001781836    4.389725021328   -2.000116728094
 O   -3.679551781836    6.910875021328   -2.417176728094
 O   -5.838751781836    5.707245021328   -1.681766728094
 C   -4.370011781836    8.057765021328   -2.909486728094
 H   -5.242091781836    8.295085021328   -2.274406728094
 H   -4.707631781836    7.902225021328   -3.947256728094
 H   -3.667701781836    8.904675021328   -2.874356728094
 C   -7.080581781836    5.920245021328   -2.354586728094
 H   -7.358141781836    5.056105021328   -2.978176728094
 H   -7.052361781836    6.806775021328   -3.008586728094
 H   -7.840581781836    6.070755021328   -1.571596728094
CS    1.278288218164   -1.552564978672    0.763243271906
 P    3.120501594053   -3.790053473917    1.863195594210
 O    2.320423119395   -5.260129350036    1.605666867770
 O    4.479619810160   -4.056495787590    0.870253808085
 O    3.622873201434   -3.734724403840    3.311640826244
 O    2.245879431514   -2.738975361222    1.188605017113
 C    3.010883954366   -6.407009560532    2.097983243432
 H    3.882960931676   -6.644340941641    1.462891985749
 H    3.348505668798   -6.251472129687    3.135745795488
 H    2.308565095029   -7.253917347625    2.062854279879
 C    5.721449054073   -4.269498024213    1.543064255877
 H    5.999015462483   -3.405356601349    2.166648997682
 H    5.693230601721   -5.156034163684    2.197073058003
 H    6.481450974249   -4.420010915283    0.760078156990
