27

 P   -4.499031577136    5.464367340092   -2.686289995359
 O   -5.001391577136    5.409037340092   -4.134729995359
 O   -3.624401577136    4.413287340092   -2.011699995359
 O   -3.698951577136    6.934437340092   -2.428759995359
 O   -5.858151577136    5.730807340092   -1.693349995359
 C   -4.389411577136    8.081327340092   -2.921069995359
 H   -5.261491577136    8.318647340092   -2.285989995359
 H   -4.727031577136    7.925787340092   -3.958839995359
 H   -3.687101577136    8.928237340092   -2.885939995359
 C   -7.099981577136    5.943807340092   -2.366169995359
 H   -7.377541577136    5.079667340092   -2.989759995359
 H   -7.071761577136    6.830337340092   -3.020169995359
 H   -7.859981577136    6.094317340092   -1.583179995359
CS    1.258888422864   -1.529002659908    0.751660004641
 P    3.160528036686   -3.838668203387    1.887094659922
 O    2.360449562028   -5.308744079506    1.629565933482
 O    4.519646252792   -4.105110517060    0.894152873798
 O    3.662899644067   -3.783339133310    3.335539891956
 O    2.285905874146   -2.787590090692    1.212504082826
 C    3.050910396998   -6.455624290002    2.121882309145
 H    3.922987374308   -6.692955671112    1.486791051461
 H    3.388532111430   -6.300086859157    3.159644861201
 H    2.348591537661   -7.302532077095    2.086753345591
 C    5.761475496705   -4.318112753683    1.566963321589
 H    6.039041905116   -3.453971330820    2.190548063395
 H    5.733257044353   -5.204648893154    2.220972123715
 H    6.521477416881   -4.468625644753    0.783977222702
