27

 P   -4.596030553634    5.582178933909   -2.744206331684
 O   -5.098390553634    5.526848933909   -4.192646331684
 O   -3.721400553634    4.531098933909   -2.069616331684
 O   -3.795950553634    7.052248933909   -2.486676331684
 O   -5.955150553634    5.848618933909   -1.751266331684
 C   -4.486410553634    8.199138933909   -2.978986331684
 H   -5.358490553634    8.436458933909   -2.343906331684
 H   -4.824030553634    8.043598933909   -4.016756331684
 H   -3.784100553634    9.046048933909   -2.943856331684
 C   -7.196980553634    6.061618933909   -2.424086331684
 H   -7.474540553634    5.197478933909   -3.047676331684
 H   -7.168760553634    6.948148933909   -3.078086331684
 H   -7.956980553634    6.212128933909   -1.641096331684
CS    1.161889446366   -1.411191066091    0.693743668316
 P    3.360660249847   -4.081741850738    2.006589988485
 O    2.560581775189   -5.551817726857    1.749061262045
 O    4.719778465953   -4.348184164411    1.013648202361
 O    3.863031857228   -4.026412780661    3.455035220519
 O    2.486038087307   -3.030663738043    1.331999411389
 C    3.251042610159   -6.698697937353    2.241377637707
 H    4.123119587470   -6.936029318463    1.606286380024
 H    3.588664324591   -6.543160506508    3.279140189763
 H    2.548723750822   -7.545605724446    2.206248674154
 C    5.961607709866   -4.561186401034    1.686458650152
 H    6.239174118277   -3.697044978171    2.310043391957
 H    5.933389257515   -5.447722540505    2.340467452278
 H    6.721609630042   -4.711699292104    0.903472551265
