27

 P   -4.654229939533    5.652865890200   -2.778956133479
 O   -5.156589939533    5.597535890200   -4.227396133479
 O   -3.779599939533    4.601785890200   -2.104366133479
 O   -3.854149939533    7.122935890200   -2.521426133479
 O   -6.013349939533    5.919305890200   -1.786016133479
 C   -4.544609939533    8.269825890200   -3.013736133479
 H   -5.416689939533    8.507145890200   -2.378656133479
 H   -4.882229939533    8.114285890200   -4.051506133479
 H   -3.842299939533    9.116735890200   -2.978606133479
 C   -7.255179939533    6.132305890200   -2.458836133479
 H   -7.532739939533    5.268165890200   -3.082426133479
 H   -7.226959939533    7.018835890200   -3.112836133479
 H   -8.015179939533    6.282815890200   -1.675846133479
CS    1.103690060467   -1.340504109800    0.658993866521
 P    3.480739577743   -4.227586039149    2.078287185623
 O    2.680661103085   -5.697661915268    1.820758459182
 O    4.839857793850   -4.494028352822    1.085345399498
 O    3.983111185125   -4.172256969072    3.526732417657
 O    2.606117415204   -3.176507926453    1.403696608526
 C    3.371121938056   -6.844542125763    2.313074834845
 H    4.243198915366   -7.081873506873    1.677983577162
 H    3.708743652488   -6.689004694919    3.350837386901
 H    2.668803078719   -7.691449912857    2.277945871292
 C    6.081687037763   -4.707030589445    1.758155847289
 H    6.359253446174   -3.842889166581    2.381740589095
 H    6.053468585411   -5.593566728916    2.412164649416
 H    6.841688957939   -4.857543480515    0.975169748402
