27

 P   -4.712429325432    5.723552846490   -2.813705935274
 O   -5.214789325432    5.668222846490   -4.262145935274
 O   -3.837799325432    4.672472846490   -2.139115935274
 O   -3.912349325432    7.193622846490   -2.556175935274
 O   -6.071549325432    5.989992846490   -1.820765935274
 C   -4.602809325432    8.340512846490   -3.048485935274
 H   -5.474889325432    8.577832846490   -2.413405935274
 H   -4.940429325432    8.184972846490   -4.086255935274
 H   -3.900499325432    9.187422846490   -3.013355935274
 C   -7.313379325432    6.202992846490   -2.493585935274
 H   -7.590939325432    5.338852846490   -3.117175935274
 H   -7.285159325432    7.089522846490   -3.147585935274
 H   -8.073379325432    6.353502846490   -1.710595935274
CS    1.045490674568   -1.269817153510    0.624244064726
 P    3.600818905640   -4.373430227559    2.149984382760
 O    2.800740430982   -5.843506103678    1.892455656320
 O    4.959937121747   -4.639872541232    1.157042596636
 O    4.103190513021   -4.318101157482    3.598429614794
 O    2.726196743101   -3.322352114864    1.475393805664
 C    3.491201265953   -6.990386314174    2.384772031982
 H    4.363278243263   -7.227717695284    1.749680774299
 H    3.828822980384   -6.834848883329    3.422534584039
 H    2.788882406615   -7.837294101267    2.349643068429
 C    6.201766365659   -4.852874777856    1.829853044427
 H    6.479332774070   -3.988733354992    2.453437786233
 H    6.173547913308   -5.739410917327    2.483861846553
 H    6.961768285836   -5.003387668925    1.046866945540
