27

 P   -4.809428301930    5.841364440308   -2.871622271599
 O   -5.311788301930    5.786034440308   -4.320062271599
 O   -3.934798301930    4.790284440308   -2.197032271599
 O   -4.009348301930    7.311434440308   -2.614092271599
 O   -6.168548301930    6.107804440308   -1.878682271599
 C   -4.699808301930    8.458324440308   -3.106402271599
 H   -5.571888301930    8.695644440308   -2.471322271599
 H   -5.037428301930    8.302784440308   -4.144172271599
 H   -3.997498301930    9.305234440308   -3.071272271599
 C   -7.410378301930    6.320804440308   -2.551502271599
 H   -7.687938301930    5.456664440308   -3.175092271599
 H   -7.382158301930    7.207334440308   -3.205502271599
 H   -8.170378301930    6.471314440308   -1.768512271599
CS    0.948491698070   -1.152005559692    0.566327728401
 P    3.800951118801   -4.616503874910    2.269479711323
 O    3.000872644143   -6.086579751029    2.011950984883
 O    5.160069334908   -4.882946188583    1.276537925199
 O    4.303322726182   -4.561174804833    3.717924943357
 O    2.926328956262   -3.565425762215    1.594889134226
 C    3.691333479114   -7.233459961525    2.504267360545
 H    4.563410456424   -7.470791342635    1.869176102862
 H    4.028955193546   -7.077922530680    3.542029912601
 H    2.989014619777   -8.080367748618    2.469138396992
 C    6.401898578821   -5.095948425207    1.949348372990
 H    6.679464987231   -4.231807002343    2.572933114795
 H    6.373680126469   -5.982484564678    2.603357175116
 H    7.161900498997   -5.246461316276    1.166362274103
