27

 P   -4.828828097230    5.864926759071   -2.883205538864
 O   -5.331188097230    5.809596759071   -4.331645538864
 O   -3.954198097230    4.813846759071   -2.208615538864
 O   -4.028748097230    7.334996759071   -2.625675538864
 O   -6.187948097230    6.131366759071   -1.890265538864
 C   -4.719208097230    8.481886759071   -3.117985538864
 H   -5.591288097230    8.719206759071   -2.482905538864
 H   -5.056828097230    8.326346759071   -4.155755538864
 H   -4.016898097230    9.328796759071   -3.082855538864
 C   -7.429778097230    6.344366759071   -2.563085538864
 H   -7.707338097230    5.480226759071   -3.186675538864
 H   -7.401558097230    7.230896759071   -3.217085538864
 H   -8.189778097230    6.494876759071   -1.780095538864
CS    0.929091902770   -1.128443240929    0.554744461136
 P    3.840977561434   -4.665118604381    2.293378777035
 O    3.040899086776   -6.135194480500    2.035850050595
 O    5.200095777540   -4.931560918053    1.300436990911
 O    4.343349168815   -4.609789534303    3.741824009069
 O    2.966355398894   -3.614040491685    1.618788199939
 C    3.731359921746   -7.282074690995    2.528166426258
 H    4.603436899057   -7.519406072105    1.893075168574
 H    4.068981636178   -7.126537260150    3.565928978314
 H    3.029041062409   -8.128982478088    2.493037462704
 C    6.441925021453   -5.144563154677    1.973247438702
 H    6.719491429864   -4.280421731813    2.596832180508
 H    6.413706569102   -6.031099294148    2.627256240828
 H    7.201926941629   -5.295076045747    1.190261339815
