27

 P   -4.848227892530    5.888489077835   -2.894788806129
 O   -5.350587892530    5.833159077835   -4.343228806129
 O   -3.973597892530    4.837409077835   -2.220198806129
 O   -4.048147892530    7.358559077835   -2.637258806129
 O   -6.207347892530    6.154929077835   -1.901848806129
 C   -4.738607892530    8.505449077835   -3.129568806129
 H   -5.610687892530    8.742769077835   -2.494488806129
 H   -5.076227892530    8.349909077835   -4.167338806129
 H   -4.036297892530    9.352359077835   -3.094438806129
 C   -7.449177892530    6.367929077835   -2.574668806129
 H   -7.726737892530    5.503789077835   -3.198258806129
 H   -7.420957892530    7.254459077835   -3.228668806129
 H   -8.209177892530    6.518439077835   -1.791678806129
CS    0.909692107470   -1.104880922165    0.543161193871
 P    3.881004004066   -4.713733333851    2.317277842748
 O    3.080925529408   -6.183809209970    2.059749116308
 O    5.240122220172   -4.980175647524    1.324336056624
 O    4.383375611447   -4.658404263774    3.765723074782
 O    3.006381841526   -3.662655221155    1.642687265651
 C    3.771386364378   -7.330689420465    2.552065491970
 H    4.643463341689   -7.568020801575    1.916974234287
 H    4.109008078810   -7.175151989621    3.589828044026
 H    3.069067505041   -8.177597207559    2.516936528417
 C    6.481951464085   -5.193177884147    1.997146504415
 H    6.759517872496   -4.329036461283    2.620731246220
 H    6.453733011734   -6.079714023618    2.651155306541
 H    7.241953384261   -5.343690775217    1.214160405528
