27

 P   -4.867627687829    5.912051396598   -2.906372073394
 O   -5.369987687829    5.856721396598   -4.354812073394
 O   -3.992997687829    4.860971396598   -2.231782073394
 O   -4.067547687829    7.382121396598   -2.648842073394
 O   -6.226747687829    6.178491396598   -1.913432073394
 C   -4.758007687829    8.529011396598   -3.141152073394
 H   -5.630087687829    8.766331396598   -2.506072073394
 H   -5.095627687829    8.373471396598   -4.178922073394
 H   -4.055697687829    9.375921396598   -3.106022073394
 C   -7.468577687829    6.391491396598   -2.586252073394
 H   -7.746137687829    5.527351396598   -3.209842073394
 H   -7.440357687829    7.278021396598   -3.240252073394
 H   -8.228577687829    6.542001396598   -1.803262073394
CS    0.890292312171   -1.081318603402    0.531577926606
 P    3.921030446698   -4.762348063321    2.341176908460
 O    3.120951972040   -6.232423939440    2.083648182020
 O    5.280148662805   -5.028790376994    1.348235122336
 O    4.423402054079   -4.707018993244    3.789622140494
 O    3.046408284159   -3.711269950626    1.666586331364
 C    3.811412807011   -7.379304149936    2.575964557683
 H    4.683489784321   -7.616635531045    1.940873299999
 H    4.149034521442   -7.223766719091    3.613727109739
 H    3.109093947673   -8.226211937029    2.540835594130
 C    6.521977906717   -5.241792613617    2.021045570127
 H    6.799544315128   -4.377651190753    2.644630311933
 H    6.493759454366   -6.128328753088    2.675054372253
 H    7.281979826894   -5.392305504687    1.238059471240
