27

 P   -4.887027483129    5.935613715362   -2.917955340659
 O   -5.389387483129    5.880283715362   -4.366395340659
 O   -4.012397483129    4.884533715362   -2.243365340659
 O   -4.086947483129    7.405683715362   -2.660425340659
 O   -6.246147483129    6.202053715362   -1.925015340659
 C   -4.777407483129    8.552573715362   -3.152735340659
 H   -5.649487483129    8.789893715362   -2.517655340659
 H   -5.115027483129    8.397033715362   -4.190505340659
 H   -4.075097483129    9.399483715362   -3.117605340659
 C   -7.487977483129    6.415053715362   -2.597835340659
 H   -7.765537483129    5.550913715362   -3.221425340659
 H   -7.459757483129    7.301583715362   -3.251835340659
 H   -8.247977483129    6.565563715362   -1.814845340659
CS    0.870892516871   -1.057756284638    0.519994659341
 P    3.961056889330   -4.810962792791    2.365075974173
 O    3.160978414672   -6.281038668910    2.107547247733
 O    5.320175105437   -5.077405106464    1.372134188049
 O    4.463428496711   -4.755633722714    3.813521206207
 O    3.086434726791   -3.759884680096    1.690485397077
 C    3.851439249643   -7.427918879406    2.599863623395
 H    4.723516226953   -7.665250260515    1.964772365712
 H    4.189060964075   -7.272381448561    3.637626175452
 H    3.149120390306   -8.274826666499    2.564734659842
 C    6.562004349350   -5.290407343087    2.044944635840
 H    6.839570757760   -4.426265920224    2.668529377645
 H    6.533785896998   -6.176943482558    2.698953437966
 H    7.322006269526   -5.440920234157    1.261958536953
