27

 P   -4.906427278429    5.959176034125   -2.929538607924
 O   -5.408787278429    5.903846034125   -4.377978607924
 O   -4.031797278429    4.908096034125   -2.254948607924
 O   -4.106347278429    7.429246034125   -2.672008607924
 O   -6.265547278429    6.225616034125   -1.936598607924
 C   -4.796807278429    8.576136034125   -3.164318607924
 H   -5.668887278429    8.813456034125   -2.529238607924
 H   -5.134427278429    8.420596034125   -4.202088607924
 H   -4.094497278429    9.423046034125   -3.129188607924
 C   -7.507377278429    6.438616034125   -2.609418607924
 H   -7.784937278429    5.574476034125   -3.233008607924
 H   -7.479157278429    7.325146034125   -3.263418607924
 H   -8.267377278429    6.589126034125   -1.826428607924
CS    0.851492721571   -1.034193965875    0.508411392076
 P    4.001083331963   -4.859577522261    2.388975039886
 O    3.201004857305   -6.329653398380    2.131446313445
 O    5.360201548069   -5.126019835934    1.396033253761
 O    4.503454939344   -4.804248452184    3.837420271919
 O    3.126461169423   -3.808499409566    1.714384462789
 C    3.891465692275   -7.476533608876    2.623762689108
 H    4.763542669586   -7.713864989986    1.988671431425
 H    4.229087406707   -7.320996178031    3.661525241164
 H    3.189146832938   -8.323441395969    2.588633725555
 C    6.602030791982   -5.339022072558    2.068843701552
 H    6.879597200393   -4.474880649694    2.692428443358
 H    6.573812339631   -6.225558212029    2.722852503679
 H    7.362032712158   -5.489534963627    1.285857602665
