27

 P   -4.925827073728    5.982738352889   -2.941121875189
 O   -5.428187073728    5.927408352889   -4.389561875189
 O   -4.051197073728    4.931658352889   -2.266531875189
 O   -4.125747073728    7.452808352889   -2.683591875189
 O   -6.284947073728    6.249178352889   -1.948181875189
 C   -4.816207073728    8.599698352889   -3.175901875189
 H   -5.688287073728    8.837018352889   -2.540821875189
 H   -5.153827073728    8.444158352889   -4.213671875189
 H   -4.113897073728    9.446608352889   -3.140771875189
 C   -7.526777073728    6.462178352889   -2.621001875189
 H   -7.804337073728    5.598038352889   -3.244591875189
 H   -7.498557073728    7.348708352889   -3.275001875189
 H   -8.286777073728    6.612688352889   -1.838011875189
CS    0.832092926272   -1.010631647111    0.496828124811
 P    4.041109774595   -4.908192251732    2.412874105598
 O    3.241031299937   -6.378268127851    2.155345379158
 O    5.400227990701   -5.174634565404    1.419932319474
 O    4.543481381976   -4.852863181654    3.861319337632
 O    3.166487612055   -3.857114139036    1.738283528502
 C    3.931492134907   -7.525148338346    2.647661754820
 H    4.803569112218   -7.762479719456    2.012570497137
 H    4.269113849339   -7.369610907501    3.685424306877
 H    3.229173275570   -8.372056125439    2.612532791267
 C    6.642057234614   -5.387636802028    2.092742767265
 H    6.919623643025   -4.523495379164    2.716327509071
 H    6.613838782263   -6.274172941499    2.746751569391
 H    7.402059154790   -5.538149693098    1.309756668378
