27

 P   -4.945226869028    6.006300671652   -2.952705142454
 O   -5.447586869028    5.950970671652   -4.401145142454
 O   -4.070596869028    4.955220671652   -2.278115142454
 O   -4.145146869028    7.476370671652   -2.695175142454
 O   -6.304346869028    6.272740671652   -1.959765142454
 C   -4.835606869028    8.623260671652   -3.187485142454
 H   -5.707686869028    8.860580671652   -2.552405142454
 H   -5.173226869028    8.467720671652   -4.225255142454
 H   -4.133296869028    9.470170671652   -3.152355142454
 C   -7.546176869028    6.485740671652   -2.632585142454
 H   -7.823736869028    5.621600671652   -3.256175142454
 H   -7.517956869028    7.372270671652   -3.286585142454
 H   -8.306176869028    6.636250671652   -1.849595142454
CS    0.812693130972   -0.987069328348    0.485244857546
 P    4.081136217227   -4.956806981202    2.436773171311
 O    3.281057742569   -6.426882857321    2.179244444870
 O    5.440254433334   -5.223249294875    1.443831385186
 O    4.583507824608   -4.901477911125    3.885218403345
 O    3.206514054688   -3.905728868506    1.762182594214
 C    3.971518577540   -7.573763067816    2.671560820533
 H    4.843595554850   -7.811094448926    2.036469562850
 H    4.309140291971   -7.418225636972    3.709323372589
 H    3.269199718202   -8.420670854910    2.636431856980
 C    6.682083677246   -5.436251531498    2.116641832977
 H    6.959650085657   -4.572110108634    2.740226574783
 H    6.653865224895   -6.322787670969    2.770650635104
 H    7.442085597422   -5.586764422568    1.333655734090
