27

 P   -4.964626664328    6.029862990416   -2.964288409719
 O   -5.466986664328    5.974532990416   -4.412728409719
 O   -4.089996664328    4.978782990416   -2.289698409719
 O   -4.164546664328    7.499932990416   -2.706758409719
 O   -6.323746664328    6.296302990416   -1.971348409719
 C   -4.855006664328    8.646822990416   -3.199068409719
 H   -5.727086664328    8.884142990416   -2.563988409719
 H   -5.192626664328    8.491282990416   -4.236838409719
 H   -4.152696664328    9.493732990416   -3.163938409719
 C   -7.565576664328    6.509302990416   -2.644168409719
 H   -7.843136664328    5.645162990416   -3.267758409719
 H   -7.537356664328    7.395832990416   -3.298168409719
 H   -8.325576664328    6.659812990416   -1.861178409719
CS    0.793293335672   -0.963507009584    0.473661590281
 P    4.121162659859   -5.005421710672    2.460672237023
 O    3.321084185201   -6.475497586791    2.203143510583
 O    5.480280875966   -5.271864024345    1.467730450899
 O    4.623534267240   -4.950092640595    3.909117469057
 O    3.246540497320   -3.954343597977    1.786081659927
 C    4.011545020172   -7.622377797287    2.695459886245
 H    4.883621997482   -7.859709178396    2.060368628562
 H    4.349166734604   -7.466840366442    3.733222438302
 H    3.309226160835   -8.469285584380    2.660330922692
 C    6.722110119879   -5.484866260968    2.140540898690
 H    6.999676528289   -4.620724838104    2.764125640496
 H    6.693891667527   -6.371402400439    2.794549700816
 H    7.482112040055   -5.635379152038    1.357554799803
