27

 P   -5.022826050227    6.100549946706   -2.999038211514
 O   -5.525186050227    6.045219946706   -4.447478211514
 O   -4.148196050227    5.049469946706   -2.324448211514
 O   -4.222746050227    7.570619946706   -2.741508211514
 O   -6.381946050227    6.366989946706   -2.006098211514
 C   -4.913206050227    8.717509946706   -3.233818211514
 H   -5.785286050227    8.954829946706   -2.598738211514
 H   -5.250826050227    8.561969946706   -4.271588211514
 H   -4.210896050227    9.564419946706   -3.198688211514
 C   -7.623776050227    6.579989946706   -2.678918211514
 H   -7.901336050227    5.715849946706   -3.302508211514
 H   -7.595556050227    7.466519946706   -3.332918211514
 H   -8.383776050227    6.730499946706   -1.895928211514
CS    0.735093949773   -0.892820053294    0.438911788486
 P    4.241241987756   -5.151265899083    2.532369434161
 O    3.441163513098   -6.621341775202    2.274840707721
 O    5.600360203863   -5.417708212755    1.539427648036
 O    4.743613595137   -5.095936829005    3.980814666195
 O    3.366619825217   -4.100187786387    1.857778857064
 C    4.131624348069   -7.768221985697    2.767157083383
 H    5.003701325379   -8.005553366807    2.132065825700
 H    4.469246062500   -7.612684554852    3.804919635439
 H    3.429305488731   -8.615129772790    2.732028119830
 C    6.842189447775   -5.630710449379    2.212238095827
 H    7.119755856186   -4.766569026515    2.835822837633
 H    6.813970995424   -6.517246588850    2.866246897954
 H    7.602191367951   -5.781223340449    1.429251996940
