27

 P   -5.042225845526    6.124112265470   -3.010621478779
 O   -5.544585845526    6.068782265470   -4.459061478779
 O   -4.167595845526    5.073032265470   -2.336031478779
 O   -4.242145845526    7.594182265470   -2.753091478779
 O   -6.401345845526    6.390552265470   -2.017681478779
 C   -4.932605845526    8.741072265470   -3.245401478779
 H   -5.804685845526    8.978392265470   -2.610321478779
 H   -5.270225845526    8.585532265470   -4.283171478779
 H   -4.230295845526    9.587982265470   -3.210271478779
 C   -7.643175845526    6.603552265470   -2.690501478779
 H   -7.920735845526    5.739412265470   -3.314091478779
 H   -7.614955845526    7.490082265470   -3.344501478779
 H   -8.403175845526    6.754062265470   -1.907511478779
CS    0.715694154474   -0.869257734530    0.427328521221
 P    4.281268430388   -5.199880628553    2.556268499873
 O    3.481189955730   -6.669956504672    2.298739773433
 O    5.640386646495   -5.466322942226    1.563326713749
 O    4.783640037769   -5.144551558476    4.004713731907
 O    3.406646267849   -4.148802515857    1.881677922777
 C    4.171650790701   -7.816836715167    2.791056149096
 H    5.043727768011   -8.054168096277    2.155964891412
 H    4.509272505133   -7.661299284323    3.828818701152
 H    3.469331931364   -8.663744502260    2.755927185542
 C    6.882215890408   -5.679325178849    2.236137161540
 H    7.159782298818   -4.815183755985    2.859721903346
 H    6.853997438056   -6.565861318320    2.890145963666
 H    7.642217810584   -5.829838069919    1.453151062653
