27

 P   -5.081025436126    6.171236902997   -3.033788013309
 O   -5.583385436126    6.115906902997   -4.482228013309
 O   -4.206395436126    5.120156902997   -2.359198013309
 O   -4.280945436126    7.641306902997   -2.776258013309
 O   -6.440145436126    6.437676902997   -2.040848013309
 C   -4.971405436126    8.788196902997   -3.268568013309
 H   -5.843485436126    9.025516902997   -2.633488013309
 H   -5.309025436126    8.632656902997   -4.306338013309
 H   -4.269095436126    9.635106902997   -3.233438013309
 C   -7.681975436126    6.650676902997   -2.713668013309
 H   -7.959535436126    5.786536902997   -3.337258013309
 H   -7.653755436126    7.537206902997   -3.367668013309
 H   -8.441975436126    6.801186902997   -1.930678013309
CS    0.676894563874   -0.822133097003    0.404161986691
 P    4.361321315653   -5.297110087493    2.604066631298
 O    3.561242840995   -6.767185963612    2.346537904858
 O    5.720439531759   -5.563552401166    1.611124845174
 O    4.863692923034   -5.241781017416    4.052511863332
 O    3.486699153113   -4.246031974798    1.929476054202
 C    4.251703675965   -7.914066174108    2.838854280521
 H    5.123780653276   -8.151397555217    2.203763022837
 H    4.589325390397   -7.758528743263    3.876616832577
 H    3.549384816628   -8.760973961201    2.803725316967
 C    6.962268775672   -5.776554637789    2.283935292965
 H    7.239835184083   -4.912413214926    2.907520034771
 H    6.934050323321   -6.663090777260    2.937944095091
 H    7.722270695848   -5.927067528859    1.500949194078
