27

 P   -5.139224822025    6.241923859288   -3.068537815104
 O   -5.641584822025    6.186593859288   -4.516977815104
 O   -4.264594822025    5.190843859288   -2.393947815104
 O   -4.339144822025    7.711993859288   -2.811007815104
 O   -6.498344822025    6.508363859288   -2.075597815104
 C   -5.029604822025    8.858883859288   -3.303317815104
 H   -5.901684822025    9.096203859288   -2.668237815104
 H   -5.367224822025    8.703343859288   -4.341087815104
 H   -4.327294822025    9.705793859288   -3.268187815104
 C   -7.740174822025    6.721363859288   -2.748417815104
 H   -8.017734822025    5.857223859288   -3.372007815104
 H   -7.711954822025    7.607893859288   -3.402417815104
 H   -8.500174822025    6.871873859288   -1.965427815104
CS    0.618695177975   -0.751446140712    0.369412184896
 P    4.481400643549   -5.442954275904    2.675763828436
 O    3.681322168892   -6.913030152023    2.418235101996
 O    5.840518859656   -5.709396589576    1.682822042312
 O    4.983772250931   -5.387625205827    4.124209060470
 O    3.606778481010   -4.391876163208    2.001173251340
 C    4.371783003862   -8.059910362518    2.910551477658
 H    5.243859981172   -8.297241743628    2.275460219975
 H    4.709404718294   -7.904372931673    3.948314029714
 H    3.669464144525   -8.906818149611    2.875422514105
 C    7.082348103569   -5.922398826200    2.355632490103
 H    7.359914511980   -5.058257403336    2.979217231908
 H    7.054129651217   -6.808934965671    3.009641292229
 H    7.842350023745   -6.072911717270    1.572646391216
