27

 P   -5.158624617324    6.265486178051   -3.080121082369
 O   -5.660984617324    6.210156178051   -4.528561082369
 O   -4.283994617324    5.214406178051   -2.405531082369
 O   -4.358544617324    7.735556178051   -2.822591082369
 O   -6.517744617324    6.531926178051   -2.087181082369
 C   -5.049004617324    8.882446178051   -3.314901082369
 H   -5.921084617324    9.119766178051   -2.679821082369
 H   -5.386624617324    8.726906178051   -4.352671082369
 H   -4.346694617324    9.729356178051   -3.279771082369
 C   -7.759574617324    6.744926178051   -2.760001082369
 H   -8.037134617324    5.880786178051   -3.383591082369
 H   -7.731354617324    7.631456178051   -3.414001082369
 H   -8.519574617324    6.895436178051   -1.977011082369
CS    0.599295382676   -0.727883821949    0.357828917631
 P    4.521427086182   -5.491569005374    2.699662894149
 O    3.721348611524   -6.961644881493    2.442134167708
 O    5.880545302288   -5.758011319047    1.706721108024
 O    5.023798693563   -5.436239935297    4.148108126182
 O    3.646804923642   -4.440490892679    2.025072317052
 C    4.411809446494   -8.108525091989    2.934450543371
 H    5.283886423805   -8.345856473098    2.299359285687
 H    4.749431160926   -7.952987661144    3.972213095427
 H    3.709490587157   -8.955432879082    2.899321579818
 C    7.122374546201   -5.971013555670    2.379531555815
 H    7.399940954612   -5.106872132806    3.003116297621
 H    7.094156093850   -6.857549695141    3.033540357942
 H    7.882376466377   -6.121526446740    1.596545456928
