27

 P   -5.178024412624    6.289048496815   -3.091704349634
 O   -5.680384412624    6.233718496815   -4.540144349634
 O   -4.303394412624    5.237968496815   -2.417114349634
 O   -4.377944412624    7.759118496815   -2.834174349634
 O   -6.537144412624    6.555488496815   -2.098764349634
 C   -5.068404412624    8.906008496815   -3.326484349634
 H   -5.940484412624    9.143328496815   -2.691404349634
 H   -5.406024412624    8.750468496815   -4.364254349634
 H   -4.366094412624    9.752918496815   -3.291354349634
 C   -7.778974412624    6.768488496815   -2.771584349634
 H   -8.056534412624    5.904348496815   -3.395174349634
 H   -7.750754412624    7.655018496815   -3.425584349634
 H   -8.538974412624    6.918998496815   -1.988594349634
CS    0.579895587376   -0.704321503185    0.346245650366
 P    4.561453528814   -5.540183734844    2.723561959861
 O    3.761375054156   -7.010259610963    2.466033233421
 O    5.920571744921   -5.806626048517    1.730620173737
 O    5.063825136195   -5.484854664767    4.172007191895
 O    3.686831366275   -4.489105622149    2.048971382765
 C    4.451835889127   -8.157139821459    2.958349609083
 H    5.323912866437   -8.394471202568    2.323258351400
 H    4.789457603558   -8.001602390614    3.996112161140
 H    3.749517029789   -9.004047608552    2.923220645530
 C    7.162400988833   -6.019628285140    2.403430621528
 H    7.439967397244   -5.155486862277    3.027015363333
 H    7.134182536482   -6.906164424611    3.057439423654
 H    7.922402909009   -6.170141176210    1.620444522641
