27

 P   -5.294423184422    6.430422409396   -3.161203953224
 O   -5.796783184422    6.375092409396   -4.609643953224
 O   -4.419793184422    5.379342409396   -2.486613953224
 O   -4.494343184422    7.900492409396   -2.903673953224
 O   -6.653543184422    6.696862409396   -2.168263953224
 C   -5.184803184422    9.047382409396   -3.395983953224
 H   -6.056883184422    9.284702409396   -2.760903953224
 H   -5.522423184422    8.891842409396   -4.433753953224
 H   -4.482493184422    9.894292409396   -3.360853953224
 C   -7.895373184422    6.909862409396   -2.841083953224
 H   -8.172933184422    6.045722409396   -3.464673953224
 H   -7.867153184422    7.796392409396   -3.495083953224
 H   -8.655373184422    7.060372409396   -2.058093953224
CS    0.463496815578   -0.562947590604    0.276746046776
 P    4.801612184607   -5.831872111665    2.866956354136
 O    4.001533709949   -7.301947987784    2.609427627696
 O    6.160730400714   -6.098314425338    1.874014568012
 O    5.303983791989   -5.776543041588    4.315401586170
 O    3.926990022068   -4.780793998970    2.192365777040
 C    4.691994544920   -8.448828198280    3.101744003358
 H    5.564071522230   -8.686159579390    2.466652745675
 H    5.029616259352   -8.293290767435    4.139506555415
 H    3.989675685583   -9.295735985373    3.066615039805
 C    7.402559644627   -6.311316661961    2.546825015803
 H    7.680126053037   -5.447175239098    3.170409757609
 H    7.374341192275   -7.197852801432    3.200833817929
 H    8.162561564803   -6.461829553031    1.763838916916
