27

 P   -5.469021342119    6.642483278267   -3.265453358609
 O   -5.971381342119    6.587153278267   -4.713893358609
 O   -4.594391342119    5.591403278267   -2.590863358609
 O   -4.668941342119    8.112553278267   -3.007923358609
 O   -6.828141342119    6.908923278267   -2.272513358609
 C   -5.359401342119    9.259443278267   -3.500233358609
 H   -6.231481342119    9.496763278267   -2.865153358609
 H   -5.697021342119    9.103903278267   -4.538003358609
 H   -4.657091342119   10.106353278267   -3.465103358609
 C   -8.069971342119    7.121923278267   -2.945333358609
 H   -8.347531342119    6.257783278267   -3.568923358609
 H   -8.041751342119    8.008453278267   -3.599333358609
 H   -8.829971342119    7.272433278267   -2.162343358609
CS    0.288898657881   -0.350886721733    0.172496641391
 P    5.161850168298   -6.269404676897    3.082047945549
 O    4.361771693640   -7.739480553016    2.824519219109
 O    6.520968384404   -6.535846990570    2.089106159425
 O    5.664221775679   -6.214075606820    4.530493177583
 O    4.287228005758   -5.218326564202    2.407457368453
 C    5.052232528610   -8.886360763512    3.316835594771
 H    5.924309505921   -9.123692144621    2.681744337088
 H    5.389854243042   -8.730823332667    4.354598146828
 H    4.349913669273   -9.733268550605    3.281706631218
 C    7.762797628317   -6.748849227193    2.761916607216
 H    8.040364036728   -5.884707804329    3.385501349021
 H    7.734579175966   -7.635385366664    3.415925409342
 H    8.522799548493   -6.899362118263    1.978930508329
