27

 P   -5.585420113917    6.783857190848   -3.334952962199
 O   -6.087780113917    6.728527190848   -4.783392962199
 O   -4.710790113917    5.732777190848   -2.660362962199
 O   -4.785340113917    8.253927190848   -3.077422962199
 O   -6.944540113917    7.050297190848   -2.342012962199
 C   -5.475800113917    9.400817190848   -3.569732962199
 H   -6.347880113917    9.638137190848   -2.934652962199
 H   -5.813420113917    9.245277190848   -4.607502962199
 H   -4.773490113917   10.247727190848   -3.534602962199
 C   -8.186370113917    7.263297190848   -3.014832962199
 H   -8.463930113917    6.399157190848   -3.638422962199
 H   -8.158150113917    8.149827190848   -3.668832962199
 H   -8.946370113917    7.413807190848   -2.231842962199
CS    0.172499886083   -0.209512809152    0.102997037801
 P    5.402008824091   -6.561093053718    3.225442339824
 O    4.601930349433   -8.031168929837    2.967913613384
 O    6.761127040198   -6.827535367391    2.232500553700
 O    5.904380431472   -6.505763983641    4.673887571858
 O    4.527386661552   -5.510014941023    2.550851762728
 C    5.292391184404   -9.178049140333    3.460229989046
 H    6.164468161714   -9.415380521443    2.825138731363
 H    5.630012898835   -9.022511709488    4.497992541103
 H    4.590072325066  -10.024956927426    3.425101025493
 C    8.002956284110   -7.040537604014    2.905311001491
 H    8.280522692521   -6.176396181151    3.528895743297
 H    7.974737831759   -7.927073743485    3.559319803617
 H    8.762958204286   -7.191050495084    2.122324902604
