27

 P   -5.701818885715    6.925231103430   -3.404452565789
 O   -6.204178885715    6.869901103430   -4.852892565789
 O   -4.827188885715    5.874151103430   -2.729862565789
 O   -4.901738885715    8.395301103430   -3.146922565789
 O   -7.060938885715    7.191671103430   -2.411512565789
 C   -5.592198885715    9.542191103430   -3.639232565789
 H   -6.464278885715    9.779511103430   -3.004152565789
 H   -5.929818885715    9.386651103430   -4.677002565789
 H   -4.889888885715   10.389101103430   -3.604102565789
 C   -8.302768885715    7.404671103430   -3.084332565789
 H   -8.580328885715    6.540531103430   -3.707922565789
 H   -8.274548885715    8.291201103430   -3.738332565789
 H   -9.062768885715    7.555181103430   -2.301342565789
CS    0.056101114285   -0.068138896570    0.033497434211
 P    5.642167479884   -6.852781430540    3.368836734099
 O    4.842089005227   -8.322857306659    3.111308007659
 O    7.001285695991   -7.119223744212    2.375894947975
 O    6.144539087266   -6.797452360462    4.817281966133
 O    4.767545317345   -5.801703317844    2.694246157003
 C    5.532549840197   -9.469737517154    3.603624383322
 H    6.404626817507   -9.707068898264    2.968533125638
 H    5.870171554629   -9.314200086309    4.641386935378
 H    4.830230980860  -10.316645304247    3.568495419769
 C    8.243114939904   -7.332225980836    3.048705395766
 H    8.520681348315   -6.468084557972    3.672290137572
 H    8.214896487552   -8.218762120307    3.702714197892
 H    9.003116860080   -7.482738871906    2.265719296879
