27

 P   -5.798817862213    7.043042697247   -3.462368902114
 O   -6.301177862213    6.987712697247   -4.910808902114
 O   -4.924187862213    5.991962697247   -2.787778902114
 O   -4.998737862213    8.513112697247   -3.204838902114
 O   -7.157937862213    7.309482697247   -2.469428902114
 C   -5.689197862213    9.660002697247   -3.697148902114
 H   -6.561277862213    9.897322697247   -3.062068902114
 H   -6.026817862213    9.504462697247   -4.734918902114
 H   -4.986887862213   10.506912697247   -3.662018902114
 C   -8.399767862213    7.522482697247   -3.142248902114
 H   -8.677327862213    6.658342697247   -3.765838902114
 H   -8.371547862213    8.409012697247   -3.796248902114
 H   -9.159767862213    7.672992697247   -2.359258902114
CS   -0.040897862213    0.049672697247   -0.024418902114
 P    5.842299693046   -7.095855077891    3.488332062662
 O    5.042221218388   -8.565930954010    3.230803336222
 O    7.201417909152   -7.362297391563    2.495390276538
 O    6.344671300427   -7.040526007813    4.936777294696
 O    4.967677530506   -6.044776965195    2.813741485566
 C    5.732682053358   -9.712811164505    3.723119711884
 H    6.604759030669   -9.950142545615    3.088028454201
 H    6.070303767790   -9.557273733660    4.760882263941
 H    5.030363194021  -10.559718951598    3.687990748331
 C    8.443247153065   -7.575299628187    3.168200724329
 H    8.720813561476   -6.711158205323    3.791785466135
 H    8.415028700714   -8.461835767658    3.822209526455
 H    9.203249073241   -7.725812519257    2.385214625442
