18

 C   -1.213248190709   -2.634128010893    0.000000000000
 H   -2.082868190709   -1.970518010893    0.000000000000
 H   -1.225048190709   -3.293268010893    0.882190000000
 H   -1.225048190709   -3.293268010893   -0.882190000000
 C    0.056411809291   -1.856528010893    0.000000000000
 O    0.112101809291   -0.582988010893    0.000000000000
 O    1.137131809291   -2.585418010893    0.000000000000
 H    1.951321809291   -2.043488010893    0.000000000000
LI   -0.151318190709    0.786921989107    1.323030000000
LI   -0.151318190709    0.786921989107   -1.323030000000
 O   -0.076726890735    0.399022030831    0.000000000000
 C   -0.021037198233    1.672554998857    0.000000000000
 O   -1.101756050303    2.401450989571    0.000000000000
 H   -1.915951486341    1.859521883935    0.000000000000
 C    1.248626539246    2.450152641170    0.000000000000
 H    2.118246008255    1.786541920099    0.000000000000
 H    1.260426148744    3.109289717790   -0.882190893991
 H    1.260426148744    3.109289717790    0.882190893991
