18

 C   -1.204794881806   -2.678089729786    0.000000000000
 H   -2.074414881806   -2.014479729786    0.000000000000
 H   -1.216594881806   -3.337229729786    0.882190000000
 H   -1.216594881806   -3.337229729786   -0.882190000000
 C    0.064865118194   -1.900489729786    0.000000000000
 O    0.120555118194   -0.626949729786    0.000000000000
 O    1.145585118194   -2.629379729786    0.000000000000
 H    1.959775118194   -2.087449729786    0.000000000000
LI   -0.142864881806    0.742960270214    1.323030000000
LI   -0.142864881806    0.742960270214   -1.323030000000
 O   -0.087156451834    0.453261316110    0.000000000000
 C   -0.031466759331    1.726794284136    0.000000000000
 O   -1.112185611402    2.455690274851    0.000000000000
 H   -1.926381047439    1.913761169215    0.000000000000
 C    1.238196978147    2.504391926449    0.000000000000
 H    2.107816447157    1.840781205378    0.000000000000
 H    1.249996587645    3.163529003069   -0.882190893991
 H    1.249996587645    3.163529003069    0.882190893991
