18

 C   -1.187888263998   -2.766013167572    0.000000000000
 H   -2.057508263998   -2.102403167572    0.000000000000
 H   -1.199688263998   -3.425153167572    0.882190000000
 H   -1.199688263998   -3.425153167572   -0.882190000000
 C    0.081771736002   -1.988413167572    0.000000000000
 O    0.137461736002   -0.714873167572    0.000000000000
 O    1.162491736002   -2.717303167572    0.000000000000
 H    1.976681736002   -2.175373167572    0.000000000000
LI   -0.125958263998    0.655036832428    1.323030000000
LI   -0.125958263998    0.655036832428   -1.323030000000
 O   -0.108015574031    0.561739886669    0.000000000000
 C   -0.052325881529    1.835272854695    0.000000000000
 O   -1.133044733599    2.564168845409    0.000000000000
 H   -1.947240169636    2.022239739773    0.000000000000
 C    1.217337855950    2.612870497008    0.000000000000
 H    2.086957324959    1.949259775937    0.000000000000
 H    1.229137465448    3.272007573628   -0.882190893991
 H    1.229137465448    3.272007573628    0.882190893991
