18

 C   -1.162528337286   -2.897898324251    0.000000000000
 H   -2.032148337286   -2.234288324251    0.000000000000
 H   -1.174328337286   -3.557038324251    0.882190000000
 H   -1.174328337286   -3.557038324251   -0.882190000000
 C    0.107131662714   -2.120298324251    0.000000000000
 O    0.162821662714   -0.846758324251    0.000000000000
 O    1.187851662714   -2.849188324251    0.000000000000
 H    2.002041662714   -2.307258324251    0.000000000000
LI   -0.100598337286    0.523151675749    1.323030000000
LI   -0.100598337286    0.523151675749   -1.323030000000
 O   -0.139304257327    0.724457742507    0.000000000000
 C   -0.083614564825    1.997990710533    0.000000000000
 O   -1.164333416895    2.726886701248    0.000000000000
 H   -1.978528852932    2.184957595611    0.000000000000
 C    1.186049172654    2.775588352846    0.000000000000
 H    2.055668641664    2.111977631775    0.000000000000
 H    1.197848782152    3.434725429466   -0.882190893991
 H    1.197848782152    3.434725429466    0.882190893991
