18

 C   -1.145621719478   -2.985821762037    0.000000000000
 H   -2.015241719478   -2.322211762037    0.000000000000
 H   -1.157421719478   -3.644961762037    0.882190000000
 H   -1.157421719478   -3.644961762037   -0.882190000000
 C    0.124038280522   -2.208221762037    0.000000000000
 O    0.179728280522   -0.934681762037    0.000000000000
 O    1.204758280522   -2.937111762037    0.000000000000
 H    2.018948280522   -2.395181762037    0.000000000000
LI   -0.083691719478    0.435228237963    1.323030000000
LI   -0.083691719478    0.435228237963   -1.323030000000
 O   -0.160163379524    0.832936313066    0.000000000000
 C   -0.104473687022    2.106469281092    0.000000000000
 O   -1.185192539092    2.835365271806    0.000000000000
 H   -1.999387975130    2.293436166170    0.000000000000
 C    1.165190050457    2.884066923405    0.000000000000
 H    2.034809519466    2.220456202334    0.000000000000
 H    1.176989659955    3.543204000025   -0.882190893991
 H    1.176989659955    3.543204000025    0.882190893991
