18

 C   -1.128715101670   -3.073745199824    0.000000000000
 H   -1.998335101670   -2.410135199824    0.000000000000
 H   -1.140515101670   -3.732885199824    0.882190000000
 H   -1.140515101670   -3.732885199824   -0.882190000000
 C    0.140944898330   -2.296145199824    0.000000000000
 O    0.196634898330   -1.022605199824    0.000000000000
 O    1.221664898330   -3.025035199824    0.000000000000
 H    2.035854898330   -2.483105199824    0.000000000000
LI   -0.066785101670    0.347304800176    1.323030000000
LI   -0.066785101670    0.347304800176   -1.323030000000
 O   -0.181022501721    0.941414883624    0.000000000000
 C   -0.125332809219    2.214947851650    0.000000000000
 O   -1.206051661289    2.943843842365    0.000000000000
 H   -2.020247097327    2.401914736729    0.000000000000
 C    1.144330928260    2.992545493963    0.000000000000
 H    2.013950397269    2.328934772893    0.000000000000
 H    1.156130537757    3.651682570583   -0.882190893991
 H    1.156130537757    3.651682570583    0.882190893991
