18

 C   -1.120261792766   -3.117706918717    0.000000000000
 H   -1.989881792766   -2.454096918717    0.000000000000
 H   -1.132061792766   -3.776846918717    0.882190000000
 H   -1.132061792766   -3.776846918717   -0.882190000000
 C    0.149398207234   -2.340106918717    0.000000000000
 O    0.205088207234   -1.066566918717    0.000000000000
 O    1.230118207234   -3.068996918717    0.000000000000
 H    2.044308207234   -2.527066918717    0.000000000000
LI   -0.058331792766    0.303343081283    1.323030000000
LI   -0.058331792766    0.303343081283   -1.323030000000
 O   -0.191452062820    0.995654168904    0.000000000000
 C   -0.135762370318    2.269187136930    0.000000000000
 O   -1.216481222388    2.998083127644    0.000000000000
 H   -2.030676658425    2.456154022008    0.000000000000
 C    1.133901367161    3.046784779243    0.000000000000
 H    2.003520836170    2.383174058172    0.000000000000
 H    1.145700976659    3.705921855863   -0.882190893991
 H    1.145700976659    3.705921855863    0.882190893991
