18

 C   -1.103355174958   -3.205630356503    0.000000000000
 H   -1.972975174958   -2.542020356503    0.000000000000
 H   -1.115155174958   -3.864770356503    0.882190000000
 H   -1.115155174958   -3.864770356503   -0.882190000000
 C    0.166304825042   -2.428030356503    0.000000000000
 O    0.221994825042   -1.154490356503    0.000000000000
 O    1.247024825042   -3.156920356503    0.000000000000
 H    2.061214825042   -2.614990356503    0.000000000000
LI   -0.041425174958    0.215419643497    1.323030000000
LI   -0.041425174958    0.215419643497   -1.323030000000
 O   -0.212311185017    1.104132739462    0.000000000000
 C   -0.156621492515    2.377665707488    0.000000000000
 O   -1.237340344585    3.106561698203    0.000000000000
 H   -2.051535780623    2.564632592567    0.000000000000
 C    1.113042244964    3.155263349802    0.000000000000
 H    1.982661713973    2.491652628731    0.000000000000
 H    1.124841854462    3.814400426421   -0.882190893991
 H    1.124841854462    3.814400426421    0.882190893991
