18

 C   -1.094901866054   -3.249592075396    0.000000000000
 H   -1.964521866054   -2.585982075396    0.000000000000
 H   -1.106701866054   -3.908732075396    0.882190000000
 H   -1.106701866054   -3.908732075396   -0.882190000000
 C    0.174758133946   -2.471992075396    0.000000000000
 O    0.230448133946   -1.198452075396    0.000000000000
 O    1.255478133946   -3.200882075396    0.000000000000
 H    2.069668133946   -2.658952075396    0.000000000000
LI   -0.032971866054    0.171457924604    1.323030000000
LI   -0.032971866054    0.171457924604   -1.323030000000
 O   -0.222740746116    1.158372024742    0.000000000000
 C   -0.167051053614    2.431904992768    0.000000000000
 O   -1.247769905684    3.160800983483    0.000000000000
 H   -2.061965341721    2.618871877846    0.000000000000
 C    1.102612683865    3.209502635081    0.000000000000
 H    1.972232152875    2.545891914010    0.000000000000
 H    1.114412293363    3.868639711701   -0.882190893991
 H    1.114412293363    3.868639711701    0.882190893991
