18

 C   -1.086448557150   -3.293553794289    0.000000000000
 H   -1.956068557150   -2.629943794289    0.000000000000
 H   -1.098248557150   -3.952693794289    0.882190000000
 H   -1.098248557150   -3.952693794289   -0.882190000000
 C    0.183211442850   -2.515953794289    0.000000000000
 O    0.238901442850   -1.242413794289    0.000000000000
 O    1.263931442850   -3.244843794289    0.000000000000
 H    2.078121442850   -2.702913794289    0.000000000000
LI   -0.024518557150    0.127496205711    1.323030000000
LI   -0.024518557150    0.127496205711   -1.323030000000
 O   -0.233170307215    1.212611310021    0.000000000000
 C   -0.177480614712    2.486144278047    0.000000000000
 O   -1.258199466782    3.215040268762    0.000000000000
 H   -2.072394902820    2.673111163126    0.000000000000
 C    1.092183122767    3.263741920360    0.000000000000
 H    1.961802591776    2.600131199290    0.000000000000
 H    1.103982732264    3.922878996980   -0.882190893991
 H    1.103982732264    3.922878996980    0.882190893991
