18

 C   -1.077995248246   -3.337515513182    0.000000000000
 H   -1.947615248246   -2.673905513182    0.000000000000
 H   -1.089795248246   -3.996655513182    0.882190000000
 H   -1.089795248246   -3.996655513182   -0.882190000000
 C    0.191664751754   -2.559915513182    0.000000000000
 O    0.247354751754   -1.286375513182    0.000000000000
 O    1.272384751754   -3.288805513182    0.000000000000
 H    2.086574751754   -2.746875513182    0.000000000000
LI   -0.016065248246    0.083534486818    1.323030000000
LI   -0.016065248246    0.083534486818   -1.323030000000
 O   -0.243599868313    1.266850595301    0.000000000000
 C   -0.187910175811    2.540383563327    0.000000000000
 O   -1.268629027881    3.269279554041    0.000000000000
 H   -2.082824463919    2.727350448405    0.000000000000
 C    1.081753561668    3.317981205640    0.000000000000
 H    1.951373030677    2.654370484569    0.000000000000
 H    1.093553171166    3.977118282260   -0.882190893991
 H    1.093553171166    3.977118282260    0.882190893991
