18

 C   -1.069541939342   -3.381477232075    0.000000000000
 H   -1.939161939342   -2.717867232075    0.000000000000
 H   -1.081341939342   -4.040617232075    0.882190000000
 H   -1.081341939342   -4.040617232075   -0.882190000000
 C    0.200118060658   -2.603877232075    0.000000000000
 O    0.255808060658   -1.330337232075    0.000000000000
 O    1.280838060658   -3.332767232075    0.000000000000
 H    2.095028060658   -2.790837232075    0.000000000000
LI   -0.007611939342    0.039572767925    1.323030000000
LI   -0.007611939342    0.039572767925   -1.323030000000
 O   -0.254029429412    1.321089880580    0.000000000000
 C   -0.198339736910    2.594622848606    0.000000000000
 O   -1.279058588980    3.323518839321    0.000000000000
 H   -2.093254025017    2.781589733685    0.000000000000
 C    1.071324000569    3.372220490919    0.000000000000
 H    1.940943469579    2.708609769848    0.000000000000
 H    1.083123610067    4.031357567539   -0.882190893991
 H    1.083123610067    4.031357567539    0.882190893991
