18

 C   -1.061088630439   -3.425438950968    0.000000000000
 H   -1.930708630439   -2.761828950968    0.000000000000
 H   -1.072888630439   -4.084578950968    0.882190000000
 H   -1.072888630439   -4.084578950968   -0.882190000000
 C    0.208571369561   -2.647838950968    0.000000000000
 O    0.264261369561   -1.374298950968    0.000000000000
 O    1.289291369561   -3.376728950968    0.000000000000
 H    2.103481369561   -2.834798950968    0.000000000000
LI    0.000841369561   -0.004388950968    1.323030000000
LI    0.000841369561   -0.004388950968   -1.323030000000
 O   -0.264458990510    1.375329165859    0.000000000000
 C   -0.208769298008    2.648862133885    0.000000000000
 O   -1.289488150078    3.377758124600    0.000000000000
 H   -2.103683586116    2.835829018964    0.000000000000
 C    1.060894439471    3.426459776198    0.000000000000
 H    1.930513908480    2.762849055128    0.000000000000
 H    1.072694048968    4.085596852818   -0.882190893991
 H    1.072694048968    4.085596852818    0.882190893991
