18

 C   -1.001915468111   -3.733170983219    0.000000000000
 H   -1.871535468111   -3.069560983219    0.000000000000
 H   -1.013715468111   -4.392310983219    0.882190000000
 H   -1.013715468111   -4.392310983219   -0.882190000000
 C    0.267744531889   -2.955570983219    0.000000000000
 O    0.323434531889   -1.682030983219    0.000000000000
 O    1.348464531889   -3.684460983219    0.000000000000
 H    2.162654531889   -3.142530983219    0.000000000000
LI    0.060014531889   -0.312120983219    1.323030000000
LI    0.060014531889   -0.312120983219   -1.323030000000
 O   -0.337465918201    1.755004162815    0.000000000000
 C   -0.281776225699    3.028537130841    0.000000000000
 O   -1.362495077769    3.757433121556    0.000000000000
 H   -2.176690513806    3.215504015920    0.000000000000
 C    0.987887511780    3.806134773154    0.000000000000
 H    1.857506980790    3.142524052083    0.000000000000
 H    0.999687121278    4.465271849774   -0.882190893991
 H    0.999687121278    4.465271849774    0.882190893991
