18

 C   -0.993462159207   -3.777132702112    0.000000000000
 H   -1.863082159207   -3.113522702112    0.000000000000
 H   -1.005262159207   -4.436272702112    0.882190000000
 H   -1.005262159207   -4.436272702112   -0.882190000000
 C    0.276197840793   -2.999532702112    0.000000000000
 O    0.331887840793   -1.725992702112    0.000000000000
 O    1.356917840793   -3.728422702112    0.000000000000
 H    2.171107840793   -3.186492702112    0.000000000000
LI    0.068467840793   -0.356082702112    1.323030000000
LI    0.068467840793   -0.356082702112   -1.323030000000
 O   -0.347895479299    1.809243448094    0.000000000000
 C   -0.292205786797    3.082776416120    0.000000000000
 O   -1.372924638867    3.811672406835    0.000000000000
 H   -2.187120074905    3.269743301199    0.000000000000
 C    0.977457950682    3.860374058433    0.000000000000
 H    1.847077419691    3.196763337363    0.000000000000
 H    0.989257560179    4.519511135053   -0.882190893991
 H    0.989257560179    4.519511135053    0.882190893991
