18

 C   -0.917382379072   -4.172788172149    0.000000000000
 H   -1.787002379072   -3.509178172149    0.000000000000
 H   -0.929182379072   -4.831928172149    0.882190000000
 H   -0.929182379072   -4.831928172149   -0.882190000000
 C    0.352277620928   -3.395188172149    0.000000000000
 O    0.407967620928   -2.121648172149    0.000000000000
 O    1.432997620928   -4.124078172149    0.000000000000
 H    2.247187620928   -3.582148172149    0.000000000000
LI    0.144547620928   -0.751738172149    1.323030000000
LI    0.144547620928   -0.751738172149   -1.323030000000
 O   -0.441761529187    2.297397015609    0.000000000000
 C   -0.386071836685    3.570929983635    0.000000000000
 O   -1.466790688755    4.299825974349    0.000000000000
 H   -2.280986124793    3.757896868713    0.000000000000
 C    0.883591900794    4.348527625948    0.000000000000
 H    1.753211369803    3.684916904877    0.000000000000
 H    0.895391510292    5.007664702568   -0.882190893991
 H    0.895391510292    5.007664702568    0.882190893991
