18

 C   -0.908929070168   -4.216749891042    0.000000000000
 H   -1.778549070168   -3.553139891042    0.000000000000
 H   -0.920729070168   -4.875889891042    0.882190000000
 H   -0.920729070168   -4.875889891042   -0.882190000000
 C    0.360730929832   -3.439149891042    0.000000000000
 O    0.416420929832   -2.165609891042    0.000000000000
 O    1.441450929832   -4.168039891042    0.000000000000
 H    2.255640929832   -3.626109891042    0.000000000000
LI    0.153000929832   -0.795699891042    1.323030000000
LI    0.153000929832   -0.795699891042   -1.323030000000
 O   -0.452191090286    2.351636300888    0.000000000000
 C   -0.396501397783    3.625169268914    0.000000000000
 O   -1.477220249854    4.354065259629    0.000000000000
 H   -2.291415685891    3.812136153993    0.000000000000
 C    0.873162339695    4.402766911227    0.000000000000
 H    1.742781808705    3.739156190156    0.000000000000
 H    0.884961949193    5.061903987847   -0.882190893991
 H    0.884961949193    5.061903987847    0.882190893991
