18

 C   -0.892022452360   -4.304673328828    0.000000000000
 H   -1.761642452360   -3.641063328828    0.000000000000
 H   -0.903822452360   -4.963813328828    0.882190000000
 H   -0.903822452360   -4.963813328828   -0.882190000000
 C    0.377637547640   -3.527073328828    0.000000000000
 O    0.433327547640   -2.253533328828    0.000000000000
 O    1.458357547640   -4.255963328828    0.000000000000
 H    2.272547547640   -3.714033328828    0.000000000000
LI    0.169907547640   -0.883623328828    1.323030000000
LI    0.169907547640   -0.883623328828   -1.323030000000
 O   -0.473050212483    2.460114871447    0.000000000000
 C   -0.417360519981    3.733647839473    0.000000000000
 O   -1.498079372051    4.462543830188    0.000000000000
 H   -2.312274808088    3.920614724551    0.000000000000
 C    0.852303217498    4.511245481786    0.000000000000
 H    1.721922686507    3.847634760715    0.000000000000
 H    0.864102826996    5.170382558406   -0.882190893991
 H    0.864102826996    5.170382558406    0.882190893991
