18

 C   -0.849755907840   -4.524481923293    0.000000000000
 H   -1.719375907840   -3.860871923293    0.000000000000
 H   -0.861555907840   -5.183621923293    0.882190000000
 H   -0.861555907840   -5.183621923293   -0.882190000000
 C    0.419904092160   -3.746881923293    0.000000000000
 O    0.475594092160   -2.473341923293    0.000000000000
 O    1.500624092160   -4.475771923293    0.000000000000
 H    2.314814092160   -3.933841923293    0.000000000000
LI    0.212174092160   -1.103431923293    1.323030000000
LI    0.212174092160   -1.103431923293   -1.323030000000
 O   -0.525198017976    2.731311297844    0.000000000000
 C   -0.469508325474    4.004844265870    0.000000000000
 O   -1.550227177544    4.733740256584    0.000000000000
 H   -2.364422613582    4.191811150948    0.000000000000
 C    0.800155412005    4.782441908183    0.000000000000
 H    1.669774881014    4.118831187112    0.000000000000
 H    0.811955021503    5.441578984803   -0.882190893991
 H    0.811955021503    5.441578984803    0.882190893991
