18

 C   -0.786276364359   -4.875994335487    0.000000000000
 H   -1.655896364359   -4.212384335487    0.000000000000
 H   -0.798076364359   -5.535134335487    0.882190000000
 H   -0.798076364359   -5.535134335487   -0.882190000000
 C    0.483383635641   -4.098394335487    0.000000000000
 O    0.539073635641   -2.824854335487    0.000000000000
 O    1.564103635641   -4.827284335487    0.000000000000
 H    2.378293635641   -4.285354335487    0.000000000000
LI    0.275653635641   -1.454944335487    1.323030000000
LI    0.275653635641   -1.454944335487   -1.323030000000
 O   -0.612781434516    3.165406919029    0.000000000000
 C   -0.557091742014    4.438939887055    0.000000000000
 O    0.583127335885    5.070717582844    0.000000000000
 H    1.346909891611    4.459785859024    0.000000000000
 C   -1.754032517951    5.324398456667    0.000000000000
 H   -2.678259235535    4.739229947173    0.000000000000
 H   -1.708250949508    5.982049553032    0.882190893991
 H   -1.708250949508    5.982049553032   -0.882190893991
