18

 C   -0.752463128743   -5.051841211059    0.000000000000
 H   -1.622083128743   -4.388231211059    0.000000000000
 H   -0.764263128743   -5.710981211059    0.882190000000
 H   -0.764263128743   -5.710981211059   -0.882190000000
 C    0.517196871257   -4.274241211059    0.000000000000
 O    0.572886871257   -3.000701211059    0.000000000000
 O    1.597916871257   -5.003131211059    0.000000000000
 H    2.412106871257   -4.461201211059    0.000000000000
LI    0.309466871257   -1.630791211059    1.323030000000
LI    0.309466871257   -1.630791211059   -1.323030000000
 O   -0.654499678910    3.382364060146    0.000000000000
 C   -0.598809986408    4.655897028172    0.000000000000
 O    0.541409091490    5.287674723961    0.000000000000
 H    1.305191647216    4.676743000142    0.000000000000
 C   -1.795750762345    5.541355597784    0.000000000000
 H   -2.719977479929    4.956187088290    0.000000000000
 H   -1.749969193903    6.199006694149    0.882190893991
 H   -1.749969193903    6.199006694149   -0.882190893991
