18

 C   -0.744009819840   -5.095802929952    0.000000000000
 H   -1.613629819840   -4.432192929952    0.000000000000
 H   -0.755809819840   -5.754942929952    0.882190000000
 H   -0.755809819840   -5.754942929952   -0.882190000000
 C    0.525650180160   -4.318202929952    0.000000000000
 O    0.581340180160   -3.044662929952    0.000000000000
 O    1.606370180160   -5.047092929952    0.000000000000
 H    2.420560180160   -4.505162929952    0.000000000000
LI    0.317920180160   -1.674752929952    1.323030000000
LI    0.317920180160   -1.674752929952   -1.323030000000
 O   -0.664929240009    3.436603345426    0.000000000000
 C   -0.609239547507    4.710136313452    0.000000000000
 O    0.530979530392    5.341914009240    0.000000000000
 H    1.294762086117    4.730982285421    0.000000000000
 C   -1.806180323444    5.595594883064    0.000000000000
 H   -2.730407041028    5.010426373570    0.000000000000
 H   -1.760398755001    6.253245979429    0.882190893991
 H   -1.760398755001    6.253245979429   -0.882190893991
