18

 C   -0.701743275320   -5.315611524417    0.000000000000
 H   -1.571363275320   -4.652001524417    0.000000000000
 H   -0.713543275320   -5.974751524417    0.882190000000
 H   -0.713543275320   -5.974751524417   -0.882190000000
 C    0.567916724680   -4.538011524417    0.000000000000
 O    0.623606724680   -3.264471524417    0.000000000000
 O    1.648636724680   -5.266901524417    0.000000000000
 H    2.462826724680   -4.724971524417    0.000000000000
LI    0.360186724680   -1.894561524417    1.323030000000
LI    0.360186724680   -1.894561524417   -1.323030000000
 O   -0.717077045502    3.707799771823    0.000000000000
 C   -0.661387353000    4.981332739848    0.000000000000
 O    0.478831724899    5.613110435637    0.000000000000
 H    1.242614280624    5.002178711818    0.000000000000
 C   -1.858328128937    5.866791309460    0.000000000000
 H   -2.782554846521    5.281622799966    0.000000000000
 H   -1.812546560495    6.524442405826    0.882190893991
 H   -1.812546560495    6.524442405826   -0.882190893991
