18

 C   -0.693289966416   -5.359573243310    0.000000000000
 H   -1.562909966416   -4.695963243310    0.000000000000
 H   -0.705089966416   -6.018713243310    0.882190000000
 H   -0.705089966416   -6.018713243310   -0.882190000000
 C    0.576370033584   -4.581973243310    0.000000000000
 O    0.632060033584   -3.308433243310    0.000000000000
 O    1.657090033584   -5.310863243310    0.000000000000
 H    2.471280033584   -4.768933243310    0.000000000000
LI    0.368640033584   -1.938523243310    1.323030000000
LI    0.368640033584   -1.938523243310   -1.323030000000
 O   -0.727506606601    3.762039057102    0.000000000000
 C   -0.671816914098    5.035572025128    0.000000000000
 O    0.468402163800    5.667349720917    0.000000000000
 H    1.232184719526    5.056417997097    0.000000000000
 C   -1.868757690035    5.921030594740    0.000000000000
 H   -2.792984407620    5.335862085246    0.000000000000
 H   -1.822976121593    6.578681691105    0.882190893991
 H   -1.822976121593    6.578681691105   -0.882190893991
