18

 C   -0.684836657512   -5.403534962203    0.000000000000
 H   -1.554456657512   -4.739924962203    0.000000000000
 H   -0.696636657512   -6.062674962203    0.882190000000
 H   -0.696636657512   -6.062674962203   -0.882190000000
 C    0.584823342488   -4.625934962203    0.000000000000
 O    0.640513342488   -3.352394962203    0.000000000000
 O    1.665543342488   -5.354824962203    0.000000000000
 H    2.479733342488   -4.812894962203    0.000000000000
LI    0.377093342488   -1.982484962203    1.323030000000
LI    0.377093342488   -1.982484962203   -1.323030000000
 O   -0.737936167699    3.816278342381    0.000000000000
 C   -0.682246475197    5.089811310407    0.000000000000
 O    0.457972602701    5.721589006196    0.000000000000
 H    1.221755158427    5.110657282377    0.000000000000
 C   -1.879187251134    5.975269880019    0.000000000000
 H   -2.803413968718    5.390101370525    0.000000000000
 H   -1.833405682692    6.632920976384    0.882190893991
 H   -1.833405682692    6.632920976384   -0.882190893991
