18

 C   -0.676383348608   -5.447496681096    0.000000000000
 H   -1.546003348608   -4.783886681096    0.000000000000
 H   -0.688183348608   -6.106636681096    0.882190000000
 H   -0.688183348608   -6.106636681096   -0.882190000000
 C    0.593276651392   -4.669896681096    0.000000000000
 O    0.648966651392   -3.396356681096    0.000000000000
 O    1.673996651392   -5.398786681096    0.000000000000
 H    2.488186651392   -4.856856681096    0.000000000000
LI    0.385546651392   -2.026446681096    1.323030000000
LI    0.385546651392   -2.026446681096   -1.323030000000
 O   -0.748365728798    3.870517627661    0.000000000000
 C   -0.692676036296    5.144050595687    0.000000000000
 O    0.447543041603    5.775828291475    0.000000000000
 H    1.211325597328    5.164896567656    0.000000000000
 C   -1.889616812233    6.029509165299    0.000000000000
 H   -2.813843529817    5.444340655805    0.000000000000
 H   -1.843835243790    6.687160261664    0.882190893991
 H   -1.843835243790    6.687160261664   -0.882190893991
