18

 C   -0.659476730800   -5.535420118882    0.000000000000
 H   -1.529096730800   -4.871810118882    0.000000000000
 H   -0.671276730800   -6.194560118882    0.882190000000
 H   -0.671276730800   -6.194560118882   -0.882190000000
 C    0.610183269200   -4.757820118882    0.000000000000
 O    0.665873269200   -3.484280118882    0.000000000000
 O    1.690903269200   -5.486710118882    0.000000000000
 H    2.505093269200   -4.944780118882    0.000000000000
LI    0.402453269200   -2.114370118882    1.323030000000
LI    0.402453269200   -2.114370118882   -1.323030000000
 O   -0.769224850995    3.978996198219    0.000000000000
 C   -0.713535158493    5.252529166245    0.000000000000
 O    0.426683919406    5.884306862034    0.000000000000
 H    1.190466475131    5.273375138215    0.000000000000
 C   -1.910475934430    6.137987735857    0.000000000000
 H   -2.834702652014    5.552819226363    0.000000000000
 H   -1.864694365988    6.795638832222    0.882190893991
 H   -1.864694365988    6.795638832222   -0.882190893991
