18

 C   -0.651023421896   -5.579381837775    0.000000000000
 H   -1.520643421896   -4.915771837775    0.000000000000
 H   -0.662823421896   -6.238521837775    0.882190000000
 H   -0.662823421896   -6.238521837775   -0.882190000000
 C    0.618636578104   -4.801781837775    0.000000000000
 O    0.674326578104   -3.528241837775    0.000000000000
 O    1.699356578104   -5.530671837775    0.000000000000
 H    2.513546578104   -4.988741837775    0.000000000000
LI    0.410906578104   -2.158331837775    1.323030000000
LI    0.410906578104   -2.158331837775   -1.323030000000
 O   -0.779654412094    4.033235483499    0.000000000000
 C   -0.723964719592    5.306768451525    0.000000000000
 O    0.416254358307    5.938546147314    0.000000000000
 H    1.180036914033    5.327614423494    0.000000000000
 C   -1.920905495529    6.192227021137    0.000000000000
 H   -2.845132213113    5.607058511643    0.000000000000
 H   -1.875123927086    6.849878117502    0.882190893991
 H   -1.875123927086    6.849878117502   -0.882190893991
