18

 C   -0.625663495184   -5.711266994454    0.000000000000
 H   -1.495283495184   -5.047656994454    0.000000000000
 H   -0.637463495184   -6.370406994454    0.882190000000
 H   -0.637463495184   -6.370406994454   -0.882190000000
 C    0.643996504816   -4.933666994454    0.000000000000
 O    0.699686504816   -3.660126994454    0.000000000000
 O    1.724716504816   -5.662556994454    0.000000000000
 H    2.538906504816   -5.120626994454    0.000000000000
LI    0.436266504816   -2.290216994454    1.323030000000
LI    0.436266504816   -2.290216994454   -1.323030000000
 O   -0.810943095390    4.195953339337    0.000000000000
 C   -0.755253402887    5.469486307363    0.000000000000
 O    0.384965675011    6.101264003152    0.000000000000
 H    1.148748230737    5.490332279332    0.000000000000
 C   -1.952194178824    6.354944876975    0.000000000000
 H   -2.876420896409    5.769776367481    0.000000000000
 H   -1.906412610382    7.012595973340    0.882190893991
 H   -1.906412610382    7.012595973340   -0.882190893991
