18

 C   -0.617210186280   -5.755228713347    0.000000000000
 H   -1.486830186280   -5.091618713347    0.000000000000
 H   -0.629010186280   -6.414368713347    0.882190000000
 H   -0.629010186280   -6.414368713347   -0.882190000000
 C    0.652449813720   -4.977628713347    0.000000000000
 O    0.708139813720   -3.704088713347    0.000000000000
 O    1.733169813720   -5.706518713347    0.000000000000
 H    2.547359813720   -5.164588713347    0.000000000000
LI    0.444719813720   -2.334178713347    1.323030000000
LI    0.444719813720   -2.334178713347   -1.323030000000
 O   -0.821372656488    4.250192624616    0.000000000000
 C   -0.765682963986    5.523725592642    0.000000000000
 O    0.374536113912    6.155503288431    0.000000000000
 H    1.138318669638    5.544571564612    0.000000000000
 C   -1.962623739923    6.409184162254    0.000000000000
 H   -2.886850457507    5.824015652760    0.000000000000
 H   -1.916842171481    7.066835258619    0.882190893991
 H   -1.916842171481    7.066835258619   -0.882190893991
