18

 C   -0.608756877376   -5.799190432240    0.000000000000
 H   -1.478376877376   -5.135580432240    0.000000000000
 H   -0.620556877376   -6.458330432240    0.882190000000
 H   -0.620556877376   -6.458330432240   -0.882190000000
 C    0.660903122624   -5.021590432240    0.000000000000
 O    0.716593122624   -3.748050432240    0.000000000000
 O    1.741623122624   -5.750480432240    0.000000000000
 H    2.555813122624   -5.208550432240    0.000000000000
LI    0.453173122624   -2.378140432240    1.323030000000
LI    0.453173122624   -2.378140432240   -1.323030000000
 O   -0.831802217587    4.304431909896    0.000000000000
 C   -0.776112525085    5.577964877922    0.000000000000
 O    0.364106552814    6.209742573711    0.000000000000
 H    1.127889108539    5.598810849891    0.000000000000
 C   -1.973053301022    6.463423447534    0.000000000000
 H   -2.897280018606    5.878254938040    0.000000000000
 H   -1.927271732580    7.121074543899    0.882190893991
 H   -1.927271732580    7.121074543899   -0.882190893991
