18

 C   -0.541130406145   -6.150884183385    0.000000000000
 H   -1.410750406145   -5.487274183385    0.000000000000
 H   -0.552930406145   -6.810024183385    0.882190000000
 H   -0.552930406145   -6.810024183385   -0.882190000000
 C    0.728529593855   -5.373284183385    0.000000000000
 O    0.784219593855   -4.099744183385    0.000000000000
 O    1.809249593855   -6.102174183385    0.000000000000
 H    2.623439593855   -5.560244183385    0.000000000000
LI    0.520799593855   -2.729834183385    1.323030000000
LI    0.520799593855   -2.729834183385   -1.323030000000
 O   -0.915238706376    4.738346192131    0.000000000000
 C   -0.859549013874    6.011879160157    0.000000000000
 O    0.280670064025    6.643656855946    0.000000000000
 H    1.044452619750    6.032725132126    0.000000000000
 C   -2.056489789811    6.897337729769    0.000000000000
 H   -2.980716507395    6.312169220275    0.000000000000
 H   -2.010708221369    7.554988826134    0.882190893991
 H   -2.010708221369    7.554988826134   -0.882190893991
