18

 C   -0.473503934913   -6.502577934529    0.000000000000
 H   -1.343123934913   -5.838967934529    0.000000000000
 H   -0.485303934913   -7.161717934529    0.882190000000
 H   -0.485303934913   -7.161717934529   -0.882190000000
 C    0.796156065087   -5.724977934529    0.000000000000
 O    0.851846065087   -4.451437934529    0.000000000000
 O    1.876876065087   -6.453867934529    0.000000000000
 H    2.691066065087   -5.911937934529    0.000000000000
LI    0.588426065087   -3.081527934529    1.323030000000
LI    0.588426065087   -3.081527934529   -1.323030000000
 O   -0.998675195165    5.172260474366    0.000000000000
 C   -0.942985502663    6.445793442392    0.000000000000
 O    0.197233575236    7.077571138181    0.000000000000
 H    0.961016130961    6.466639414361    0.000000000000
 C   -2.139926278600    7.331252012004    0.000000000000
 H   -3.064152996184    6.746083502510    0.000000000000
 H   -2.094144710158    7.988903108369    0.882190893991
 H   -2.094144710158    7.988903108369   -0.882190893991
