9

 C   -1.065541471924   -1.305613577399    0.387728328668
 H   -2.044468471924   -0.813825577399    0.387728328668
 H   -0.958395471924   -1.945422577399    1.276000328668
 H   -0.958395471924   -1.945422577399   -0.500543671332
 C    0.019085528076   -0.260029577399    0.387728328668
 O   -0.142018471924    0.949521422601    0.387728328668
 O    1.261371528076   -0.837037577399    0.387728328668
 H    1.895907528076   -0.098474577399    0.387728328668
NA   -0.142018471924    0.949521422601   -1.012271671332
