9

 C   -1.065541471924   -1.305613577399    0.941625941050
 H   -2.044468471924   -0.813825577399    0.941625941050
 H   -0.958395471924   -1.945422577399    1.829897941050
 H   -0.958395471924   -1.945422577399    0.053353941050
 C    0.019085528076   -0.260029577399    0.941625941050
 O   -0.142018471924    0.949521422601    0.941625941050
 O    1.261371528076   -0.837037577399    0.941625941050
 H    1.895907528076   -0.098474577399    0.941625941050
NA   -0.142018471924    0.949521422601   -2.458374058950
