9

 C   -1.065541471924   -1.305613577399    1.578608195290
 H   -2.044468471924   -0.813825577399    1.578608195290
 H   -0.958395471924   -1.945422577399    2.466880195290
 H   -0.958395471924   -1.945422577399    0.690336195290
 C    0.019085528076   -0.260029577399    1.578608195290
 O   -0.142018471924    0.949521422601    1.578608195290
 O    1.261371528076   -0.837037577399    1.578608195290
 H    1.895907528076   -0.098474577399    1.578608195290
NA   -0.142018471924    0.949521422601   -4.121391804710
