9

 C   -1.065541471924   -1.305613577399    1.938641643339
 H   -2.044468471924   -0.813825577399    1.938641643339
 H   -0.958395471924   -1.945422577399    2.826913643339
 H   -0.958395471924   -1.945422577399    1.050369643339
 C    0.019085528076   -0.260029577399    1.938641643339
 O   -0.142018471924    0.949521422601    1.938641643339
 O    1.261371528076   -0.837037577399    1.938641643339
 H    1.895907528076   -0.098474577399    1.938641643339
NA   -0.142018471924    0.949521422601   -5.061358356661
