9

 C   -1.065541471924   -1.305613577399    2.492539255722
 H   -2.044468471924   -0.813825577399    2.492539255722
 H   -0.958395471924   -1.945422577399    3.380811255722
 H   -0.958395471924   -1.945422577399    1.604267255722
 C    0.019085528076   -0.260029577399    2.492539255722
 O   -0.142018471924    0.949521422601    2.492539255722
 O    1.261371528076   -0.837037577399    2.492539255722
 H    1.895907528076   -0.098474577399    2.492539255722
NA   -0.142018471924    0.949521422601   -6.507460744278
