9

 C   -1.065541471924   -1.305613577399    2.741793181294
 H   -2.044468471924   -0.813825577399    2.741793181294
 H   -0.958395471924   -1.945422577399    3.630065181294
 H   -0.958395471924   -1.945422577399    1.853521181294
 C    0.019085528076   -0.260029577399    2.741793181294
 O   -0.142018471924    0.949521422601    2.741793181294
 O    1.261371528076   -0.837037577399    2.741793181294
 H    1.895907528076   -0.098474577399    2.741793181294
NA   -0.142018471924    0.949521422601   -7.158206818706
