14

 C    0.650605349869    1.742094416785    0.000000463999
 O    0.435815349869    0.251344416785    0.000000463999
 H    1.330755349869   -0.137445583215    0.000000463999
 H   -0.348584650131    2.192314416785    0.000000463999
 H    1.204635349869    2.018604416785    0.903450463999
 H    1.204635349869    2.018604416785   -0.903449536001
LI   -0.803104650131   -0.463165583215   -1.431549536001
LI   -0.803104650131   -0.463165583215    1.431550463999
 O   -0.083941676304   -0.048409872164   -0.000000602820
 C   -0.298733619816   -1.539165466989   -0.000000602823
 H   -0.978878233386    0.340379410602   -0.000002731575
 H    0.700459583692   -1.989384775390    0.000001779129
 H   -0.852756320453   -1.815675053534   -0.903448259651
 H   -0.852760365267   -1.815674470749    0.903444751952
