14

 C    0.721664538746    1.783075674493    0.000000609851
 O    0.506874538746    0.292325674493    0.000000609851
 H    1.401814538746   -0.096464325507    0.000000609851
 H   -0.277525461254    2.233295674493    0.000000609851
 H    1.275694538746    2.059585674493    0.903450609851
 H    1.275694538746    2.059585674493   -0.903449390149
LI   -0.732045461254   -0.422184325507   -1.431549390149
LI   -0.732045461254   -0.422184325507    1.431550609851
 O   -0.186134829484   -0.107346710772   -0.000000812575
 C   -0.400926772996   -1.598102305597   -0.000000812578
 H   -1.081071386567    0.281442571994   -0.000002941330
 H    0.598266430512   -2.048321613998    0.000001569374
 H   -0.954949473633   -1.874611892142   -0.903448469406
 H   -0.954953518447   -1.874611309357    0.903444542197
