14

 C    0.899312510939    1.885528818763    0.000000974479
 O    0.684522510939    0.394778818763    0.000000974479
 H    1.579462510939    0.005988818763    0.000000974479
 H   -0.099877489061    2.335748818763    0.000000974479
 H    1.453342510939    2.162038818763    0.903450974479
 H    1.453342510939    2.162038818763   -0.903449025521
LI   -0.554397489061   -0.319731181237   -1.431549025521
LI   -0.554397489061   -0.319731181237    1.431550974479
 O   -0.441617712435   -0.254688807292   -0.000001336963
 C   -0.656409655946   -1.745444402117   -0.000001336965
 H   -1.336554269517    0.134100475474   -0.000003465718
 H    0.342783547562   -2.195663710518    0.000001044986
 H   -1.210432356583   -2.021953988662   -0.903448993793
 H   -1.210436401398   -2.021953405877    0.903444017809
