14

 C    1.076960483133    1.987981963034    0.000001339108
 O    0.862170483133    0.497231963034    0.000001339108
 H    1.757110483133    0.108441963034    0.000001339108
 H    0.077770483133    2.438201963034    0.000001339108
 H    1.630990483133    2.264491963034    0.903451339108
 H    1.630990483133    2.264491963034   -0.903448660892
LI   -0.376749516867   -0.217278036966   -1.431548660892
LI   -0.376749516867   -0.217278036966    1.431551339108
 O   -0.697100595385   -0.402030903812   -0.000001861350
 C   -0.911892538897   -1.892786498637   -0.000001861353
 H   -1.592037152467   -0.013241621046   -0.000003990105
 H    0.087300664611   -2.343005807038    0.000000520599
 H   -1.465915239534   -2.169296085182   -0.903449518181
 H   -1.465919284348   -2.169295502397    0.903443493422
