14

 C    4.096976010423    3.729685415630    0.000007537796
 O    3.882186010423    2.238935415630    0.000007537796
 H    4.777126010423    1.850145415630    0.000007537796
 H    3.097786010423    4.179905415630    0.000007537796
 H    4.651006010423    4.006195415630    0.903457537796
 H    4.651006010423    4.006195415630   -0.903442462204
LI    2.643266010423    1.524425415630   -1.431542462204
LI    2.643266010423    1.524425415630    1.431557537796
 O   -5.040309605542   -2.906846544652   -0.000010775939
 C   -5.255101549054   -4.397602139477   -0.000010775941
 H   -5.935246162624   -2.518057261886   -0.000012904694
 H   -4.255908345546   -4.847821447878   -0.000008393990
 H   -5.809124249690   -4.674111726022   -0.903458432769
 H   -5.809128294505   -4.674111143237    0.903434578833
