14

 C    4.203564793739    3.791157302192    0.000007756573
 O    3.988774793739    2.300407302192    0.000007756573
 H    4.883714793739    1.911617302192    0.000007756573
 H    3.204374793739    4.241377302192    0.000007756573
 H    4.757594793739    4.067667302192    0.903457756573
 H    4.757594793739    4.067667302192   -0.903442243427
LI    2.749854793739    1.585897302192   -1.431542243427
LI    2.749854793739    1.585897302192    1.431557756573
 O   -5.193599335312   -2.995251802564   -0.000011090571
 C   -5.408391278824   -4.486007397389   -0.000011090574
 H   -6.088535892394   -2.606462519798   -0.000013219326
 H   -4.409198075316   -4.936226705790   -0.000008708622
 H   -5.962413979461   -4.762516983934   -0.903458747402
 H   -5.962418024275   -4.762516401149    0.903434264201
