14

 C    4.274623982616    3.832138559900    0.000007902424
 O    4.059833982616    2.341388559900    0.000007902424
 H    4.954773982616    1.952598559900    0.000007902424
 H    3.275433982616    4.282358559900    0.000007902424
 H    4.828653982616    4.108648559900    0.903457902424
 H    4.828653982616    4.108648559900   -0.903442097576
LI    2.820913982616    1.626878559900   -1.431542097576
LI    2.820913982616    1.626878559900    1.431557902424
 O   -5.295792488492   -3.054188641172   -0.000011300326
 C   -5.510584432004   -4.544944235997   -0.000011300329
 H   -6.190729045575   -2.665399358406   -0.000013429081
 H   -4.511391228496   -4.995163544398   -0.000008918377
 H   -6.064607132641   -4.821453822542   -0.903458957157
 H   -6.064611177455   -4.821453239757    0.903434054446
