14

 C    4.310153577055    3.852629188754    0.000007975350
 O    4.095363577055    2.361879188754    0.000007975350
 H    4.990303577055    1.973089188754    0.000007975350
 H    3.310963577055    4.302849188754    0.000007975350
 H    4.864183577055    4.129139188754    0.903457975350
 H    4.864183577055    4.129139188754   -0.903442024650
LI    2.856443577055    1.647369188754   -1.431542024650
LI    2.856443577055    1.647369188754    1.431557975350
 O   -5.346889065082   -3.083657060476   -0.000011405204
 C   -5.561681008594   -4.574412655301   -0.000011405206
 H   -6.241825622165   -2.694867777710   -0.000013533959
 H   -4.562487805086   -5.024631963702   -0.000009023255
 H   -6.115703709231   -4.850922241846   -0.903459062034
 H   -6.115707754045   -4.850921659061    0.903433949568
