14

 C    1.219078860888    2.069944478450    0.000001630811
 O    1.004288860888    0.579194478450    0.000001630811
 H    1.899228860888    0.190404478450    0.000001630811
 H    0.219888860888    2.520164478450    0.000001630811
 H    1.773108860888    2.346454478450    0.903451630811
 H    1.773108860888    2.346454478450   -0.903448369189
LI   -0.234631139112   -0.135315521550   -1.431548369189
LI   -0.234631139112   -0.135315521550    1.431551630811
 O   -0.901486901745   -0.519904581028   -0.000002280860
 C   -1.116278845257   -2.010660175853   -0.000002280863
 H   -1.796423458828   -0.131115298262   -0.000004409616
 H   -0.117085641749   -2.460879484254    0.000000101089
 H   -1.670301545894   -2.287169762398   -0.903449937691
 H   -1.670305590708   -2.287169179613    0.903443073912
