14

 C    1.254608455326    2.090435107304    0.000001703737
 O    1.039818455326    0.599685107304    0.000001703737
 H    1.934758455326    0.210895107304    0.000001703737
 H    0.255418455326    2.540655107304    0.000001703737
 H    1.808638455326    2.366945107304    0.903451703737
 H    1.808638455326    2.366945107304   -0.903448296263
LI   -0.199101544674   -0.114824892696   -1.431548296263
LI   -0.199101544674   -0.114824892696    1.431551703737
 O   -0.952583478336   -0.549373000332   -0.000002385738
 C   -1.167375421847   -2.040128595157   -0.000002385740
 H   -1.847520035418   -0.160583717566   -0.000004514493
 H   -0.168182218339   -2.490347903558   -0.000000003789
 H   -1.721398122484   -2.316638181702   -0.903450042568
 H   -1.721402167298   -2.316637598917    0.903442969034
