14

 C    1.290138049765    2.110925736158    0.000001776662
 O    1.075348049765    0.620175736158    0.000001776662
 H    1.970288049765    0.231385736158    0.000001776662
 H    0.290948049765    2.561145736158    0.000001776662
 H    1.844168049765    2.387435736158    0.903451776662
 H    1.844168049765    2.387435736158   -0.903448223338
LI   -0.163571950235   -0.094334263842   -1.431548223338
LI   -0.163571950235   -0.094334263842    1.431551776662
 O   -1.003680054926   -0.578841419636   -0.000002490615
 C   -1.218471998437   -2.069597014461   -0.000002490618
 H   -1.898616612008   -0.190052136870   -0.000004619371
 H   -0.219278794929   -2.519816322862   -0.000000108666
 H   -1.772494699074   -2.346106601006   -0.903450147446
 H   -1.772498743889   -2.346106018221    0.903442864157
