14

 C    1.645433994152    2.315832024699    0.000002505920
 O    1.430643994152    0.825082024699    0.000002505920
 H    2.325583994152    0.436292024699    0.000002505920
 H    0.646243994152    2.766052024699    0.000002505920
 H    2.199463994152    2.592342024699    0.903452505920
 H    2.199463994152    2.592342024699   -0.903447494080
LI    0.191723994152    0.110572024699   -1.431547494080
LI    0.191723994152    0.110572024699    1.431552505920
 O   -1.514645820826   -0.873525612676   -0.000003539391
 C   -1.729437764338   -2.364281207501   -0.000003539393
 H   -2.409582377909   -0.484736329910   -0.000005668146
 H   -0.730244560830   -2.814500515902   -0.000001157441
 H   -2.283460464975   -2.640790794046   -0.903451196221
 H   -2.283464509789   -2.640790211261    0.903441815382
