14

 C    1.716493183030    2.356813282407    0.000002651771
 O    1.501703183030    0.866063282407    0.000002651771
 H    2.396643183030    0.477273282407    0.000002651771
 H    0.717303183030    2.807033282407    0.000002651771
 H    2.270523183030    2.633323282407    0.903452651771
 H    2.270523183030    2.633323282407   -0.903447348229
LI    0.262783183030    0.151553282407   -1.431547348229
LI    0.262783183030    0.151553282407    1.431552651771
 O   -1.616838974007   -0.932462451284   -0.000003749146
 C   -1.831630917518   -2.423218046109   -0.000003749148
 H   -2.511775531089   -0.543673168518   -0.000005877901
 H   -0.832437714010   -2.873437354510   -0.000001367196
 H   -2.385653618155   -2.699727632654   -0.903451405976
 H   -2.385657662969   -2.699727049869    0.903441605627
