14

 C    2.036259532978    2.541228942094    0.000003308103
 O    1.821469532978    1.050478942094    0.000003308103
 H    2.716409532978    0.661688942094    0.000003308103
 H    1.037069532978    2.991448942094    0.000003308103
 H    2.590289532978    2.817738942094    0.903453308103
 H    2.590289532978    2.817738942094   -0.903446691897
LI    0.582549532978    0.335968942094   -1.431546691897
LI    0.582549532978    0.335968942094    1.431553308103
 O   -2.076708163317   -1.197678225020   -0.000004693043
 C   -2.291500106829   -2.688433819845   -0.000004693046
 H   -2.971644720400   -0.808888942254   -0.000006821798
 H   -1.292306903321   -3.138653128246   -0.000002311094
 H   -2.845522807466   -2.964943406390   -0.903452349874
 H   -2.845526852280   -2.964942823605    0.903440661729
