14

 C    2.071789127417    2.561719570948    0.000003381029
 O    1.856999127417    1.070969570948    0.000003381029
 H    2.751939127417    0.682179570948    0.000003381029
 H    1.072599127417    3.011939570948    0.000003381029
 H    2.625819127417    2.838229570948    0.903453381029
 H    2.625819127417    2.838229570948   -0.903446618971
LI    0.618079127417    0.356459570948   -1.431546618971
LI    0.618079127417    0.356459570948    1.431553381029
 O   -2.127804739907   -1.227146644324   -0.000004797921
 C   -2.342596683419   -2.717902239149   -0.000004797923
 H   -3.022741296990   -0.838357361558   -0.000006926676
 H   -1.343403479911   -3.168121547550   -0.000002415972
 H   -2.896619384056   -2.994411825694   -0.903452454751
 H   -2.896623428870   -2.994411242909    0.903440556851
