14

 C    2.142848316294    2.602700828656    0.000003526880
 O    1.928058316294    1.111950828656    0.000003526880
 H    2.822998316294    0.723160828656    0.000003526880
 H    1.143658316294    3.052920828656    0.000003526880
 H    2.696878316294    2.879210828656    0.903453526880
 H    2.696878316294    2.879210828656   -0.903446473120
LI    0.689138316294    0.397440828656   -1.431546473120
LI    0.689138316294    0.397440828656    1.431553526880
 O   -2.229997893088   -1.286083482932   -0.000005007676
 C   -2.444789836599   -2.776839077757   -0.000005007678
 H   -3.124934450170   -0.897294200166   -0.000007136431
 H   -1.445596633091   -3.227058386158   -0.000002625727
 H   -2.998812537236   -3.053348664302   -0.903452664506
 H   -2.998816582050   -3.053348081517    0.903440347096
