14

 C    2.178377910733    2.623191457510    0.000003599806
 O    1.963587910733    1.132441457510    0.000003599806
 H    2.858527910733    0.743651457510    0.000003599806
 H    1.179187910733    3.073411457510    0.000003599806
 H    2.732407910733    2.899701457510    0.903453599806
 H    2.732407910733    2.899701457510   -0.903446400194
LI    0.724667910733    0.417931457510   -1.431546400194
LI    0.724667910733    0.417931457510    1.431553599806
 O   -2.281094469678   -1.315551902236   -0.000005112553
 C   -2.495886413189   -2.806307497061   -0.000005112556
 H   -3.176031026760   -0.926762619470   -0.000007241308
 H   -1.496693209681   -3.256526805462   -0.000002730604
 H   -3.049909113826   -3.082817083606   -0.903452769384
 H   -3.049913158641   -3.082816500821    0.903440242219
