14

 C    2.213907505171    2.643682086364    0.000003672732
 O    1.999117505171    1.152932086364    0.000003672732
 H    2.894057505171    0.764142086364    0.000003672732
 H    1.214717505171    3.093902086364    0.000003672732
 H    2.767937505171    2.920192086364    0.903453672732
 H    2.767937505171    2.920192086364   -0.903446327268
LI    0.760197505171    0.438422086364   -1.431546327268
LI    0.760197505171    0.438422086364    1.431553672732
 O   -2.332191046268   -1.345020321540   -0.000005217431
 C   -2.546982989779   -2.835775916365   -0.000005217433
 H   -3.227127603350   -0.956231038774   -0.000007346186
 H   -1.547789786271   -3.285995224766   -0.000002835482
 H   -3.101005690416   -3.112285502910   -0.903452874261
 H   -3.101009735231   -3.112284920125    0.903440137341
