14

 C    2.249437099610    2.664172715218    0.000003745657
 O    2.034647099610    1.173422715218    0.000003745657
 H    2.929587099610    0.784632715218    0.000003745657
 H    1.250247099610    3.114392715218    0.000003745657
 H    2.803467099610    2.940682715218    0.903453745657
 H    2.803467099610    2.940682715218   -0.903446254343
LI    0.795727099610    0.458912715218   -1.431546254343
LI    0.795727099610    0.458912715218    1.431553745657
 O   -2.383287622858   -1.374488740844   -0.000005322308
 C   -2.598079566369   -2.865244335669   -0.000005322311
 H   -3.278224179940   -0.985699458078   -0.000007451063
 H   -1.598886362861   -3.315463644070   -0.000002940359
 H   -3.152102267006   -3.141753922214   -0.903452979139
 H   -3.152106311821   -3.141753339429    0.903440032464
