14

 C    2.284966694049    2.684663344072    0.000003818583
 O    2.070176694049    1.193913344072    0.000003818583
 H    2.965116694049    0.805123344072    0.000003818583
 H    1.285776694049    3.134883344072    0.000003818583
 H    2.838996694049    2.961173344072    0.903453818583
 H    2.838996694049    2.961173344072   -0.903446181417
LI    0.831256694049    0.479403344072   -1.431546181417
LI    0.831256694049    0.479403344072    1.431553818583
 O   -2.434384199448   -1.403957160148   -0.000005427186
 C   -2.649176142960   -2.894712754973   -0.000005427188
 H   -3.329320756530   -1.015167877382   -0.000007555941
 H   -1.649982939451   -3.344932063374   -0.000003045237
 H   -3.203198843596   -3.171222341518   -0.903453084016
 H   -3.203202888411   -3.171221758733    0.903439927586
