14

 C    2.356025882926    2.725644601780    0.000003964435
 O    2.141235882926    1.234894601780    0.000003964435
 H    3.036175882926    0.846104601780    0.000003964435
 H    1.356835882926    3.175864601780    0.000003964435
 H    2.910055882926    3.002154601780    0.903453964435
 H    2.910055882926    3.002154601780   -0.903446035565
LI    0.902315882926    0.520384601780   -1.431546035565
LI    0.902315882926    0.520384601780    1.431553964435
 O   -2.536577352628   -1.462893998756   -0.000005636941
 C   -2.751369296140   -2.953649593581   -0.000005636943
 H   -3.431513909710   -1.074104715990   -0.000007765696
 H   -1.752176092632   -3.403868901982   -0.000003254992
 H   -3.305391996776   -3.230159180126   -0.903453293771
 H   -3.305396041591   -3.230158597341    0.903439717831
