14

 C    2.569203449559    2.848588374905    0.000004401989
 O    2.354413449559    1.357838374905    0.000004401989
 H    3.249353449559    0.969048374905    0.000004401989
 H    1.570013449559    3.298808374905    0.000004401989
 H    3.123233449559    3.125098374905    0.903454401989
 H    3.123233449559    3.125098374905   -0.903445598011
LI    1.115493449559    0.643328374905   -1.431545598011
LI    1.115493449559    0.643328374905    1.431554401989
 O   -2.843156812169   -1.639704514580   -0.000006266206
 C   -3.057948755680   -3.130460109405   -0.000006266208
 H   -3.738093369251   -1.250915231814   -0.000008394961
 H   -2.058755552172   -3.580679417806   -0.000003884257
 H   -3.611971456317   -3.406969695950   -0.903453923036
 H   -3.611975501131   -3.406969113165    0.903439088566
