14

 C    2.640262638436    2.889569632613    0.000004547840
 O    2.425472638436    1.398819632613    0.000004547840
 H    3.320412638436    1.010029632613    0.000004547840
 H    1.641072638436    3.339789632613    0.000004547840
 H    3.194292638436    3.166079632613    0.903454547840
 H    3.194292638436    3.166079632613   -0.903445452160
LI    1.186552638436    0.684309632613   -1.431545452160
LI    1.186552638436    0.684309632613    1.431554547840
 O   -2.945349965349   -1.698641353188   -0.000006475961
 C   -3.160141908860   -3.189396948013   -0.000006475963
 H   -3.840286522431   -1.309852070422   -0.000008604716
 H   -2.160948705352   -3.639616256414   -0.000004094012
 H   -3.714164609497   -3.465906534558   -0.903454132791
 H   -3.714168654312   -3.465905951773    0.903438878811
