14

 C    2.675792232875    2.910060261467    0.000004620766
 O    2.461002232875    1.419310261467    0.000004620766
 H    3.355942232875    1.030520261467    0.000004620766
 H    1.676602232875    3.360280261467    0.000004620766
 H    3.229822232875    3.186570261467    0.903454620766
 H    3.229822232875    3.186570261467   -0.903445379234
LI    1.222082232875    0.704800261467   -1.431545379234
LI    1.222082232875    0.704800261467    1.431554620766
 O   -2.996446541939   -1.728109772492   -0.000006580838
 C   -3.211238485450   -3.218865367317   -0.000006580841
 H   -3.891383099021   -1.339320489726   -0.000008709593
 H   -2.212045281942   -3.669084675718   -0.000004198889
 H   -3.765261186087   -3.495374953862   -0.903454237669
 H   -3.765265230902   -3.495374371077    0.903438773934
