14

 C    2.888969799507    3.033004034591    0.000005058321
 O    2.674179799507    1.542254034591    0.000005058321
 H    3.569119799507    1.153464034591    0.000005058321
 H    1.889779799507    3.483224034591    0.000005058321
 H    3.442999799507    3.309514034591    0.903455058321
 H    3.442999799507    3.309514034591   -0.903444941679
LI    1.435259799507    0.827744034591   -1.431544941679
LI    1.435259799507    0.827744034591    1.431555058321
 O   -3.303026001479   -1.904920288316   -0.000007210103
 C   -3.517817944991   -3.395675883141   -0.000007210106
 H   -4.197962558561   -1.516131005550   -0.000009338859
 H   -2.518624741483   -3.845895191542   -0.000004828154
 H   -4.071840645628   -3.672185469686   -0.903454866934
 H   -4.071844690442   -3.672184886901    0.903438144669
