14

 C    3.066617771700    3.135457178862    0.000005422949
 O    2.851827771700    1.644707178862    0.000005422949
 H    3.746767771700    1.255917178862    0.000005422949
 H    2.067427771700    3.585677178862    0.000005422949
 H    3.620647771700    3.411967178862    0.903455422949
 H    3.620647771700    3.411967178862   -0.903444577051
LI    1.612907771700    0.930197178862   -1.431544577051
LI    1.612907771700    0.930197178862    1.431555422949
 O   -3.558508884430   -2.052262384836   -0.000007734491
 C   -3.773300827941   -3.543017979661   -0.000007734494
 H   -4.453445441512   -1.663473102070   -0.000009863246
 H   -2.774107624433   -3.993237288062   -0.000005352542
 H   -4.327323528578   -3.819527566206   -0.903455391321
 H   -4.327327573393   -3.819526983421    0.903437620281
