14

 C    3.102147366139    3.155947807716    0.000005495875
 O    2.887357366139    1.665197807716    0.000005495875
 H    3.782297366139    1.276407807716    0.000005495875
 H    2.102957366139    3.606167807716    0.000005495875
 H    3.656177366139    3.432457807716    0.903455495875
 H    3.656177366139    3.432457807716   -0.903444504125
LI    1.648437366139    0.950687807716   -1.431544504125
LI    1.648437366139    0.950687807716    1.431555495875
 O   -3.609605461020   -2.081730804140   -0.000007839369
 C   -3.824397404531   -3.572486398965   -0.000007839371
 H   -4.504542018102   -1.692941521374   -0.000009968124
 H   -2.825204201023   -4.022705707366   -0.000005457419
 H   -4.378420105168   -3.848995985510   -0.903455496199
 H   -4.378424149983   -3.848995402725    0.903437515404
