14

 C    3.137676960578    3.176438436570    0.000005568801
 O    2.922886960578    1.685688436570    0.000005568801
 H    3.817826960578    1.296898436570    0.000005568801
 H    2.138486960578    3.626658436570    0.000005568801
 H    3.691706960578    3.452948436570    0.903455568801
 H    3.691706960578    3.452948436570   -0.903444431199
LI    1.683966960578    0.971178436570   -1.431544431199
LI    1.683966960578    0.971178436570    1.431555568801
 O   -3.660702037610   -2.111199223444   -0.000007944246
 C   -3.875493981121   -3.601954818269   -0.000007944249
 H   -4.555638594692   -1.722409940678   -0.000010073001
 H   -2.876300777613   -4.052174126670   -0.000005562297
 H   -4.429516681758   -3.878464404814   -0.903455601076
 H   -4.429520726573   -3.878463822029    0.903437410526
