14

 C    3.528502499404    3.401835353964    0.000006370984
 O    3.313712499404    1.911085353964    0.000006370984
 H    4.208652499404    1.522295353964    0.000006370984
 H    2.529312499404    3.852055353964    0.000006370984
 H    4.082532499404    3.678345353964    0.903456370984
 H    4.082532499404    3.678345353964   -0.903443629016
LI    2.074792499404    1.196575353964   -1.431543629016
LI    2.074792499404    1.196575353964    1.431556370984
 O   -4.222764380101   -2.435351835788   -0.000009097899
 C   -4.437556323612   -3.926107430613   -0.000009097901
 H   -5.117700937183   -2.046562553022   -0.000011226654
 H   -3.438363120104   -4.376326739014   -0.000006715949
 H   -4.991579024249   -4.202617017158   -0.903456754729
 H   -4.991583069064   -4.202616434373    0.903436256873
