14

 C    3.564032093842    3.422325982819    0.000006443910
 O    3.349242093842    1.931575982819    0.000006443910
 H    4.244182093842    1.542785982819    0.000006443910
 H    2.564842093842    3.872545982819    0.000006443910
 H    4.118062093842    3.698835982819    0.903456443910
 H    4.118062093842    3.698835982819   -0.903443556090
LI    2.110322093842    1.217065982819   -1.431543556090
LI    2.110322093842    1.217065982819    1.431556443910
 O   -4.273860956691   -2.464820255092   -0.000009202776
 C   -4.488652900202   -3.955575849917   -0.000009202779
 H   -5.168797513773   -2.076030972326   -0.000011331531
 H   -3.489459696694   -4.405795158318   -0.000006820827
 H   -5.042675600839   -4.232085436462   -0.903456859607
 H   -5.042679645654   -4.232084853677    0.903436151996
