14

 C    3.599561688281    3.442816611673    0.000006516835
 O    3.384771688281    1.952066611673    0.000006516835
 H    4.279711688281    1.563276611673    0.000006516835
 H    2.600371688281    3.893036611673    0.000006516835
 H    4.153591688281    3.719326611673    0.903456516835
 H    4.153591688281    3.719326611673   -0.903443483165
LI    2.145851688281    1.237556611673   -1.431543483165
LI    2.145851688281    1.237556611673    1.431556516835
 O   -4.324957533281   -2.494288674396   -0.000009307654
 C   -4.539749476792   -3.985044269221   -0.000009307656
 H   -5.219894090363   -2.105499391630   -0.000011436409
 H   -3.540556273284   -4.435263577622   -0.000006925705
 H   -5.093772177429   -4.261553855766   -0.903456964484
 H   -5.093776222244   -4.261553272981    0.903436047118
