14

 C    3.670620877158    3.483797869381    0.000006662687
 O    3.455830877158    1.993047869381    0.000006662687
 H    4.350770877158    1.604257869381    0.000006662687
 H    2.671430877158    3.934017869381    0.000006662687
 H    4.224650877158    3.760307869381    0.903456662687
 H    4.224650877158    3.760307869381   -0.903443337313
LI    2.216910877158    1.278537869381   -1.431543337313
LI    2.216910877158    1.278537869381    1.431556662687
 O   -4.427150686461   -2.553225513004   -0.000009517409
 C   -4.641942629973   -4.043981107829   -0.000009517411
 H   -5.322087243543   -2.164436230238   -0.000011646164
 H   -3.642749426465   -4.494200416230   -0.000007135460
 H   -5.195965330609   -4.320490694374   -0.903457174239
 H   -5.195969375424   -4.320490111589    0.903435837363
