14

 C    3.848268849352    3.586251013651    0.000007027315
 O    3.633478849352    2.095501013651    0.000007027315
 H    4.528418849352    1.706711013651    0.000007027315
 H    2.849078849352    4.036471013651    0.000007027315
 H    4.402298849352    3.862761013651    0.903457027315
 H    4.402298849352    3.862761013651   -0.903442972685
LI    2.394558849352    1.380991013651   -1.431542972685
LI    2.394558849352    1.380991013651    1.431557027315
 O   -4.682633569411   -2.700567609524   -0.000010041796
 C   -4.897425512923   -4.191323204349   -0.000010041799
 H   -5.577570126494   -2.311778326758   -0.000012170551
 H   -3.898232309415   -4.641542512750   -0.000007659847
 H   -5.451448213560   -4.467832790894   -0.903457698627
 H   -5.451452258374   -4.467832208109    0.903435312976
