14

 C    3.919328038229    3.627232271359    0.000007173167
 O    3.704538038229    2.136482271359    0.000007173167
 H    4.599478038229    1.747692271359    0.000007173167
 H    2.920138038229    4.077452271359    0.000007173167
 H    4.473358038229    3.903742271359    0.903457173167
 H    4.473358038229    3.903742271359   -0.903442826833
LI    2.465618038229    1.421972271359   -1.431542826833
LI    2.465618038229    1.421972271359    1.431557173167
 O   -4.784826722592   -2.759504448132   -0.000010251551
 C   -4.999618666103   -4.250260042957   -0.000010251554
 H   -5.679763279674   -2.370715165366   -0.000012380306
 H   -4.000425462595   -4.700479351358   -0.000007869602
 H   -5.553641366740   -4.526769629502   -0.903457908382
 H   -5.553645411554   -4.526769046717    0.903435103221
