14

 C    3.954857632668    3.647722900213    0.000007246093
 O    3.740067632668    2.156972900213    0.000007246093
 H    4.635007632668    1.768182900213    0.000007246093
 H    2.955667632668    4.097942900213    0.000007246093
 H    4.508887632668    3.924232900213    0.903457246093
 H    4.508887632668    3.924232900213   -0.903442753907
LI    2.501147632668    1.442462900213   -1.431542753907
LI    2.501147632668    1.442462900213    1.431557246093
 O   -4.835923299182   -2.788972867436   -0.000010356429
 C   -5.050715242693   -4.279728462261   -0.000010356431
 H   -5.730859856264   -2.400183584670   -0.000012485184
 H   -4.051522039185   -4.729947770662   -0.000007974480
 H   -5.604737943330   -4.556238048806   -0.903458013259
 H   -5.604741988145   -4.556237466021    0.903434998343
