27

 N    1.254750931389    3.414871284419   -0.026806132719
 C    0.446720931389    4.518571284419   -0.067156132719
 H    0.942600931389    5.489361284419   -0.072196132719
 C    0.741690931389    2.126451284419   -0.016296132719
 O    1.493670931389    1.125061284419    0.020993867281
 N   -0.617019068611    1.961471284419   -0.047956132719
 C   -1.425229068611    3.027521284419   -0.087656132719
 N   -2.751999068611    2.795811284419   -0.117226132719
 H   -3.084959068611    1.838871284419   -0.108626132719
 H   -3.420139068611    3.552851284419   -0.147606132719
 C   -0.914069068611    4.372261284419   -0.098856132719
 H   -1.568769068611    5.241551284419   -0.131186132719
 H    2.266730931389    3.503141284419   -0.002576132719
LI   -0.127779068611   -0.096248715581   -0.001796132719
 O   -1.485591277532   -1.118981225913   -0.020880618976
 C   -0.733618935498   -2.120370356910    0.016409160269
 N   -1.246679352591   -3.408784658777    0.026921898116
 H   -2.258658122988   -3.497053546371    0.002691672180
 C   -0.438649589559   -4.512492239715    0.067265655193
 H   -0.934535142350   -5.483271240130    0.072311741395
 C    0.922140313641   -4.366182088807    0.098970214650
 H    1.576831954702   -5.235472945007    0.131300933056
 C    1.433302598222   -3.021440342722    0.087774199374
 N    0.625087253979   -1.955385838683    0.048065558650
 N    2.760077793093   -2.789735002883    0.117340568220
 H    3.093040117501   -1.832782610521    0.108736099684
 H    3.428215102874   -3.546777157097    0.147723802432
