27

 N    1.332176270187    3.473189666440   -0.025717894740
 C    0.524146270187    4.576889666440   -0.066067894740
 H    1.020026270187    5.547679666440   -0.071107894740
 C    0.819116270187    2.184769666440   -0.015207894740
 O    1.571096270187    1.183379666440    0.022082105260
 N   -0.539593729813    2.019789666440   -0.046867894740
 C   -1.347803729813    3.085839666440   -0.086567894740
 N   -2.674573729813    2.854129666440   -0.116137894740
 H   -3.007533729813    1.897189666440   -0.107537894740
 H   -3.342713729813    3.611169666440   -0.146517894740
 C   -0.836643729813    4.430579666440   -0.097767894740
 H   -1.491343729813    5.299869666440   -0.130097894740
 H    2.344156270187    3.561459666440   -0.001487894740
LI   -0.050353729813   -0.037930333560   -0.000707894740
 O   -1.567908551548   -1.180984315696   -0.022037614674
 C   -0.815936209514   -2.182373446693    0.015252164571
 N   -1.328996626607   -3.470787748560    0.025764902418
 H   -2.340975397004   -3.559056636154    0.001534676482
 C   -0.520966863576   -4.574495329498    0.066108659495
 H   -1.016852416366   -5.545274329913    0.071154745697
 C    0.839823039624   -4.428185178590    0.097813218952
 H    1.494514680686   -5.297476034790    0.130143937358
 C    1.350985324206   -3.083443432505    0.086617203675
 N    0.542769979963   -2.017388928466    0.046908562952
 N    2.677760519077   -2.851738092666    0.116183572522
 H    3.010722843484   -1.894785700304    0.107579103986
 H    3.345897828858   -3.608780246880    0.146566806734
