27

 N    4.467902491511    5.835084138280    0.018355743413
 C    3.659872491511    6.938784138280   -0.021994256587
 H    4.155752491511    7.909574138280   -0.027034256587
 C    3.954842491511    4.546664138280    0.028865743413
 O    4.706822491511    3.545274138280    0.066155743413
 N    2.596132491511    4.381684138280   -0.002794256587
 C    1.787922491511    5.447734138280   -0.042494256587
 N    0.461152491511    5.216024138280   -0.072064256587
 H    0.128192491511    4.259084138280   -0.063464256587
 H   -0.206987508489    5.973064138280   -0.102444256587
 C    2.299082491511    6.792474138280   -0.053694256587
 H    1.644382491511    7.661764138280   -0.086024256587
 H    5.479882491511    5.923354138280    0.042585743413
LI    3.085372491511    2.323964138280    0.043365743413
 O   -4.901758149200   -3.692109451906   -0.068895940451
 C   -4.149785807166   -4.693498582903   -0.031606161206
 N   -4.662846224259   -5.981912884770   -0.021093423359
 H   -5.674824994656   -6.070181772364   -0.045323649295
 C   -3.854816461228   -7.085620465708    0.019250333718
 H   -4.350702014018   -8.056399466124    0.024296419921
 C   -2.494026558028   -6.939310314800    0.050954893175
 H   -1.839334916967   -7.808601171000    0.083285611582
 C   -1.982864273446   -5.594568568716    0.039758877899
 N   -2.791079617689   -4.528514064677    0.000050237175
 N   -0.656089078575   -5.362863228876    0.069325246745
 H   -0.323126754168   -4.405910836515    0.060720778209
 H    0.012048231206   -6.119905383090    0.099708480957
