27

 N    1.370888939586    3.502348857450   -0.025173775751
 C    0.562858939586    4.606048857450   -0.065523775751
 H    1.058738939586    5.576838857450   -0.070563775751
 C    0.857828939586    2.213928857450   -0.014663775751
 O    1.609808939586    1.212538857450    0.022626224249
 N   -0.500881060414    2.048948857450   -0.046323775751
 C   -1.309091060414    3.114998857450   -0.086023775751
 N   -2.635861060414    2.883288857450   -0.115593775751
 H   -2.968821060414    1.926348857450   -0.106993775751
 H   -3.304001060414    3.640328857450   -0.145973775751
 C   -0.797931060414    4.459738857450   -0.097223775751
 H   -1.452631060414    5.329028857450   -0.129553775751
 H    2.382868939586    3.590618857450   -0.000943775751
LI   -0.011641060414   -0.008771142550   -0.000163775751
 O   -1.609067188556   -1.211985860587   -0.022616112524
 C   -0.857094846522   -2.213374991584    0.014673666721
 N   -1.370155263615   -3.501789293451    0.025186404569
 H   -2.382134034012   -3.590058181045    0.000956178632
 C   -0.562125500584   -4.605496874389    0.065530161646
 H   -1.058011053374   -5.576275874805    0.070576247848
 C    0.798664402616   -4.459186723482    0.097234721103
 H    1.453356043677   -5.328477579681    0.129565439509
 C    1.309826687198   -3.114444977397    0.086038705826
 N    0.501611342955   -2.048390473358    0.046330065103
 N    2.636601882069   -2.882739637557    0.115605074672
 H    2.969564206476   -1.925787245196    0.107000606137
 H    3.304739191850   -3.639781791771    0.145988308885
