27

 N    1.409601608985    3.531508048460   -0.024629656761
 C    0.601571608985    4.635208048460   -0.064979656761
 H    1.097451608985    5.605998048460   -0.070019656761
 C    0.896541608985    2.243088048460   -0.014119656761
 O    1.648521608985    1.241698048460    0.023170343239
 N   -0.462168391015    2.078108048460   -0.045779656761
 C   -1.270378391015    3.144158048460   -0.085479656761
 N   -2.597148391015    2.912448048460   -0.115049656761
 H   -2.930108391015    1.955508048460   -0.106449656761
 H   -3.265288391015    3.669488048460   -0.145429656761
 C   -0.759218391015    4.488898048460   -0.096679656761
 H   -1.413918391015    5.358188048460   -0.129009656761
 H    2.421581608985    3.619778048460   -0.000399656761
LI    0.027071608985    0.020388048460    0.000380343239
 O   -1.650225825564   -1.242987405479   -0.023194610373
 C   -0.898253483530   -2.244376536476    0.014095168872
 N   -1.411313900623   -3.532790838343    0.024607906720
 H   -2.423292671020   -3.621059725937    0.000377680783
 C   -0.603284137592   -4.636498419281    0.064951663796
 H   -1.099169690382   -5.607277419696    0.069997749999
 C    0.757505765608   -4.490188268373    0.096656223254
 H    1.412197406669   -5.359479124573    0.128986941660
 C    1.268668050190   -3.145446522288    0.085460207977
 N    0.460452705947   -2.079392018249    0.045751567254
 N    2.595443245061   -2.913741182449    0.115026576823
 H    2.928405569468   -1.956788790087    0.106422108288
 H    3.263580554842   -3.670783336663    0.145409811036
