27

 N    1.525739617182    3.618985621492   -0.022997299792
 C    0.717709617182    4.722685621492   -0.063347299792
 H    1.213589617182    5.693475621492   -0.068387299792
 C    1.012679617182    2.330565621492   -0.012487299792
 O    1.764659617182    1.329175621492    0.024802700208
 N   -0.346030382818    2.165585621492   -0.044147299792
 C   -1.154240382818    3.231635621492   -0.083847299792
 N   -2.481010382818    2.999925621492   -0.113417299792
 H   -2.813970382818    2.042985621492   -0.104817299792
 H   -3.149150382818    3.756965621492   -0.143797299792
 C   -0.643080382818    4.576375621492   -0.095047299792
 H   -1.297780382818    5.445665621492   -0.127377299792
 H    2.537719617182    3.707255621492    0.001232700208
LI    0.143209617182    0.107865621492    0.002012700208
 O   -1.773701736589   -1.335992040153   -0.024930103920
 C   -1.021729394554   -2.337381171150    0.012359675325
 N   -1.534789811647   -3.625795473017    0.022872413172
 H   -2.546768582044   -3.714064360611   -0.001357812764
 C   -0.726760048616   -4.729503053955    0.063216170249
 H   -1.222645601406   -5.700282054371    0.068262256452
 C    0.634029854584   -4.583192903047    0.094920729706
 H    1.288721495645   -5.452483759247    0.127251448113
 C    1.145192139166   -3.238451156963    0.083724714430
 N    0.336976794923   -2.172396652924    0.044016073706
 N    2.471967334036   -3.006745817123    0.113291083276
 H    2.804929658444   -2.049793424762    0.104686614741
 H    3.140104643818   -3.763787971337    0.143674317488
