27

 N    1.719302964178    3.764781576543   -0.020276704845
 C    0.911272964178    4.868481576543   -0.060626704845
 H    1.407152964178    5.839271576543   -0.065666704845
 C    1.206242964178    2.476361576543   -0.009766704845
 O    1.958222964178    1.474971576543    0.027523295155
 N   -0.152467035822    2.311381576543   -0.041426704845
 C   -0.960677035822    3.377431576543   -0.081126704845
 N   -2.287447035822    3.145721576543   -0.110696704845
 H   -2.620407035822    2.188781576543   -0.102096704845
 H   -2.955587035822    3.902761576543   -0.141076704845
 C   -0.449517035822    4.722171576543   -0.092326704845
 H   -1.104217035822    5.591461576543   -0.124656704845
 H    2.731282964178    3.853051576543    0.003953295155
LI    0.336772964178    0.253661576543    0.004733295155
 O   -1.979494921629   -1.490999764611   -0.027822593165
 C   -1.227522579594   -2.492388895608    0.009467186080
 N   -1.740582996687   -3.780803197474    0.019979923927
 H   -2.752561767084   -3.869072085069   -0.004250302009
 C   -0.932553233656   -4.884510778413    0.060323681004
 H   -1.428438786447   -5.855289778828    0.065369767206
 C    0.428236669544   -4.738200627505    0.092028240461
 H    1.082928310605   -5.607491483704    0.124358958867
 C    0.939398954126   -3.393458881420    0.080832225184
 N    0.131183609883   -2.327404377381    0.041123584461
 N    2.266174148996   -3.161753541580    0.110398594031
 H    2.599136473404   -2.204801149219    0.101794125495
 H    2.934311458777   -3.918795695794    0.140781828243
