27

 N    1.796728302976    3.823099958564   -0.019188466866
 C    0.988698302976    4.926799958564   -0.059538466866
 H    1.484578302976    5.897589958564   -0.064578466866
 C    1.283668302976    2.534679958564   -0.008678466866
 O    2.035648302976    1.533289958564    0.028611533134
 N   -0.075041697024    2.369699958564   -0.040338466866
 C   -0.883251697024    3.435749958564   -0.080038466866
 N   -2.210021697024    3.204039958564   -0.109608466866
 H   -2.542981697024    2.247099958564   -0.101008466866
 H   -2.878161697024    3.961079958564   -0.139988466866
 C   -0.372091697024    4.780489958564   -0.091238466866
 H   -1.026791697024    5.649779958564   -0.123568466866
 H    2.808708302976    3.911369958564    0.005041533134
LI    0.414198302976    0.311979958564    0.005821533134
 O   -2.061812195645   -1.553002854394   -0.028979588864
 C   -1.309839853610   -2.554391985391    0.008310190381
 N   -1.822900270704   -3.842806287257    0.018822928229
 H   -2.834879041100   -3.931075174852   -0.005407297708
 C   -1.014870507672   -4.946513868196    0.059166685305
 H   -1.510756060463   -5.917292868611    0.064212771508
 C    0.345919395528   -4.800203717288    0.090871244763
 H    1.000611036589   -5.669494573487    0.123201963169
 C    0.857081680110   -3.455461971203    0.079675229486
 N    0.048866335867   -2.389407467164    0.039966588763
 N    2.183856874980   -3.223756631363    0.109241598332
 H    2.516819199388   -2.266804239002    0.100637129797
 H    2.851994184761   -3.980798785577    0.139624832545
