27

 N    1.835440972375    3.852259149575   -0.018644347876
 C    1.027410972375    4.955959149575   -0.058994347876
 H    1.523290972375    5.926749149575   -0.064034347876
 C    1.322380972375    2.563839149575   -0.008134347876
 O    2.074360972375    1.562449149575    0.029155652124
 N   -0.036329027625    2.398859149575   -0.039794347876
 C   -0.844539027625    3.464909149575   -0.079494347876
 N   -2.171309027625    3.233199149575   -0.109064347876
 H   -2.504269027625    2.276259149575   -0.100464347876
 H   -2.839449027625    3.990239149575   -0.139444347876
 C   -0.333379027625    4.809649149575   -0.090694347876
 H   -0.988079027625    5.678939149575   -0.123024347876
 H    2.847420972375    3.940529149575    0.005585652124
LI    0.452910972375    0.341139149575    0.006365652124
 O   -2.102970832653   -1.584004399285   -0.029558086713
 C   -1.350998490618   -2.585393530282    0.007731692532
 N   -1.864058907712   -3.873807832149    0.018244430379
 H   -2.876037678108   -3.962076719743   -0.005985795557
 C   -1.056029144680   -4.977515413087    0.058588187456
 H   -1.551914697471   -5.948294413503    0.063634273659
 C    0.304760758520   -4.831205262179    0.090292746914
 H    0.959452399581   -5.700496118379    0.122623465320
 C    0.815923043102   -3.486463516095    0.079096731637
 N    0.007707698859   -2.420409012056    0.039388090914
 N    2.142698237972   -3.254758176255    0.108663100483
 H    2.475660562380   -2.297805783894    0.100058631948
 H    2.810835547753   -4.011800330469    0.139046334696
