27

 N    1.912866311173    3.910577531595   -0.017556109897
 C    1.104836311173    5.014277531595   -0.057906109897
 H    1.600716311173    5.985067531595   -0.062946109897
 C    1.399806311173    2.622157531595   -0.007046109897
 O    2.151786311173    1.620767531595    0.030243890103
 N    0.041096311173    2.457177531595   -0.038706109897
 C   -0.767113688827    3.523227531595   -0.078406109897
 N   -2.093883688827    3.291517531595   -0.107976109897
 H   -2.426843688827    2.334577531595   -0.099376109897
 H   -2.762023688827    4.048557531595   -0.138356109897
 C   -0.255953688827    4.867967531595   -0.089606109897
 H   -0.910653688827    5.737257531595   -0.121936109897
 H    2.924846311173    3.998847531595    0.006673890103
LI    0.530336311173    0.399457531595    0.007453890103
 O   -2.185288106669   -1.646007489068   -0.030715082411
 C   -1.433315764634   -2.647396620065    0.006574696834
 N   -1.946376181728   -3.935810921932    0.017087434681
 H   -2.958354952125   -4.024079809526   -0.007142791255
 C   -1.138346418696   -5.039518502870    0.057431191758
 H   -1.634231971487   -6.010297503285    0.062477277961
 C    0.222443484504   -4.893208351962    0.089135751216
 H    0.877135125565   -5.762499208162    0.121466469622
 C    0.733605769086   -3.548466605878    0.077939735939
 N   -0.074609575158   -2.482412101839    0.038231095215
 N    2.060380963956   -3.316761266038    0.107506104785
 H    2.393343288364   -2.359808873676    0.098901636250
 H    2.728518273737   -4.073803420252    0.137889338997
