27

 N    1.951578980572    3.939736722606   -0.017011990907
 C    1.143548980572    5.043436722606   -0.057361990907
 H    1.639428980572    6.014226722606   -0.062401990907
 C    1.438518980572    2.651316722606   -0.006501990907
 O    2.190498980572    1.649926722606    0.030788009093
 N    0.079808980572    2.486336722606   -0.038161990907
 C   -0.728401019428    3.552386722606   -0.077861990907
 N   -2.055171019428    3.320676722606   -0.107431990907
 H   -2.388131019428    2.363736722606   -0.098831990907
 H   -2.723311019428    4.077716722606   -0.137811990907
 C   -0.217241019428    4.897126722606   -0.089061990907
 H   -0.871941019428    5.766416722606   -0.121391990907
 H    2.963558980572    4.028006722606    0.007218009093
LI    0.569048980572    0.428616722606    0.007998009093
 O   -2.226446743677   -1.677009033960   -0.031293580260
 C   -1.474474401642   -2.678398164956    0.005996198985
 N   -1.987534818736   -3.966812466823    0.016508936832
 H   -2.999513589133   -4.055081354418   -0.007721289104
 C   -1.179505055704   -5.070520047762    0.056852693909
 H   -1.675390608495   -6.041299048177    0.061898780112
 C    0.181284847496   -4.924209896854    0.088557253366
 H    0.835976488557   -5.793500753053    0.120887971773
 C    0.692447132078   -3.579468150769    0.077361238090
 N   -0.115768212166   -2.513413646730    0.037652597366
 N    2.019222326948   -3.347762810929    0.106927606936
 H    2.352184651356   -2.390810418568    0.098323138400
 H    2.687359636729   -4.104804965143    0.137310841148
