27

 N    2.029004319370    3.998055104626   -0.015923752928
 C    1.220974319370    5.101755104626   -0.056273752928
 H    1.716854319370    6.072545104626   -0.061313752928
 C    1.515944319370    2.709635104626   -0.005413752928
 O    2.267924319370    1.708245104626    0.031876247072
 N    0.157234319370    2.544655104626   -0.037073752928
 C   -0.650975680630    3.610705104626   -0.076773752928
 N   -1.977745680630    3.378995104626   -0.106343752928
 H   -2.310705680630    2.422055104626   -0.097743752928
 H   -2.645885680630    4.136035104626   -0.136723752928
 C   -0.139815680630    4.955445104626   -0.087973752928
 H   -0.794515680630    5.824735104626   -0.120303752928
 H    3.040984319370    4.086325104626    0.008306247072
LI    0.646474319370    0.486935104626    0.009086247072
 O   -2.308764017693   -1.739012123743   -0.032450575958
 C   -1.556791675659   -2.740401254739    0.004839203287
 N   -2.069852092752   -4.028815556606    0.015351941134
 H   -3.081830863149   -4.117084444201   -0.008878284802
 C   -1.261822329720   -5.132523137544    0.055695698211
 H   -1.757707882511   -6.103302137960    0.060741784414
 C    0.098967573480   -4.986212986637    0.087400257668
 H    0.753659214541   -5.855503842836    0.119730976074
 C    0.610129858061   -3.641471240552    0.076204242392
 N   -0.198085486182   -2.575416736513    0.036495601668
 N    1.936905052932   -3.409765900712    0.105770611238
 H    2.269867377340   -2.452813508351    0.097166142702
 H    2.605042362713   -4.166808054926    0.136153845450
