27

 N    2.067716988769    4.027214295637   -0.015379633939
 C    1.259686988769    5.130914295637   -0.055729633939
 H    1.755566988769    6.101704295637   -0.060769633939
 C    1.554656988769    2.738794295637   -0.004869633939
 O    2.306636988769    1.737404295637    0.032420366061
 N    0.195946988769    2.573814295637   -0.036529633939
 C   -0.612263011231    3.639864295637   -0.076229633939
 N   -1.939033011231    3.408154295637   -0.105799633939
 H   -2.271993011231    2.451214295637   -0.097199633939
 H   -2.607173011231    4.165194295637   -0.136179633939
 C   -0.101103011231    4.984604295637   -0.087429633939
 H   -0.755803011231    5.853894295637   -0.119759633939
 H    3.079696988769    4.115484295637    0.008850366061
LI    0.685186988769    0.516094295637    0.009630366061
 O   -2.349922654701   -1.770013668634   -0.033029073807
 C   -1.597950312667   -2.771402799631    0.004260705438
 N   -2.111010729760   -4.059817101498    0.014773443285
 H   -3.122989500157   -4.148085989092   -0.009456782651
 C   -1.302980966728   -5.163524682436    0.055117200362
 H   -1.798866519519   -6.134303682851    0.060163286564
 C    0.057808936471   -5.017214531528    0.086821759819
 H    0.712500577533   -5.886505387728    0.119152478225
 C    0.568971221053   -3.672472785444    0.075625744543
 N   -0.239244123190   -2.606418281405    0.035917103819
 N    1.895746415924   -3.440767445604    0.105192113389
 H    2.228708740332   -2.483815053242    0.096587644853
 H    2.563883725705   -4.197809599818    0.135575347601
