27

 N    2.145142327567    4.085532677658   -0.014291395960
 C    1.337112327567    5.189232677658   -0.054641395960
 H    1.832992327567    6.160022677658   -0.059681395960
 C    1.632082327567    2.797112677658   -0.003781395960
 O    2.384062327567    1.795722677658    0.033508604040
 N    0.273372327567    2.632132677658   -0.035441395960
 C   -0.534837672433    3.698182677658   -0.075141395960
 N   -1.861607672433    3.466472677658   -0.104711395960
 H   -2.194567672433    2.509532677658   -0.096111395960
 H   -2.529747672433    4.223512677658   -0.135091395960
 C   -0.023677672433    5.042922677658   -0.086341395960
 H   -0.678377672433    5.912212677658   -0.118671395960
 H    3.157122327567    4.173802677658    0.009938604040
LI    0.762612327567    0.574412677658    0.010718604040
 O   -2.432239928717   -1.832016758417   -0.034186069505
 C   -1.680267586683   -2.833405889414    0.003103709740
 N   -2.193328003776   -4.121820191281    0.013616447587
 H   -3.205306774173   -4.210089078875   -0.010613778349
 C   -1.385298240745   -5.225527772219    0.053960204664
 H   -1.881183793535   -6.196306772634    0.059006290866
 C   -0.024508337545   -5.079217621311    0.085664764121
 H    0.630183303516   -5.948508477511    0.117995482527
 C    0.486653947037   -3.734475875227    0.074468748844
 N   -0.321561397206   -2.668421371188    0.034760108121
 N    1.813429141908   -3.502770535387    0.104035117691
 H    2.146391466315   -2.545818143025    0.095430649155
 H    2.481566451689   -4.259812689601    0.134418351903
