27

 N    2.261280335765    4.173010250689   -0.012659038991
 C    1.453250335765    5.276710250689   -0.053009038991
 H    1.949130335765    6.247500250689   -0.058049038991
 C    1.748220335765    2.884590250689   -0.002149038991
 O    2.500200335765    1.883200250689    0.035140961009
 N    0.389510335765    2.719610250689   -0.033809038991
 C   -0.418699664235    3.785660250689   -0.073509038991
 N   -1.745469664235    3.553950250689   -0.103079038991
 H   -2.078429664235    2.597010250689   -0.094479038991
 H   -2.413609664235    4.310990250689   -0.133459038991
 C    0.092460335765    5.130400250689   -0.084709038991
 H   -0.562239664235    5.999690250689   -0.117039038991
 H    3.273260335765    4.261280250689    0.011570961009
LI    0.878750335765    0.661890250689    0.012350961009
 O   -2.555715839742   -1.925021393091   -0.035921563053
 C   -1.803743497707   -2.926410524088    0.001368216192
 N   -2.316803914800   -4.214824825955    0.011880954039
 H   -3.328782685197   -4.303093713550   -0.012349271897
 C   -1.508774151769   -5.318532406893    0.052224711116
 H   -2.004659704559   -6.289311407309    0.057270797319
 C   -0.147984248569   -5.172222255986    0.083929270574
 H    0.506707392492   -6.041513112185    0.116259988980
 C    0.363178036013   -3.827480509901    0.072733255297
 N   -0.445037308230   -2.761426005862    0.033024614574
 N    1.689953230883   -3.595775170061    0.102299624143
 H    2.022915555291   -2.638822777700    0.093695155608
 H    2.358090540665   -4.352817324275    0.132682858355
