27

 N    2.299993005164    4.202169441699   -0.012114920001
 C    1.491963005164    5.305869441699   -0.052464920001
 H    1.987843005164    6.276659441699   -0.057504920001
 C    1.786933005164    2.913749441699   -0.001604920001
 O    2.538913005164    1.912359441699    0.035685079999
 N    0.428223005164    2.748769441699   -0.033264920001
 C   -0.379986994836    3.814819441699   -0.072964920001
 N   -1.706756994836    3.583109441699   -0.102534920001
 H   -2.039716994836    2.626169441699   -0.093934920001
 H   -2.374896994836    4.340149441699   -0.132914920001
 C    0.131173005164    5.159559441699   -0.084164920001
 H   -0.523526994836    6.028849441699   -0.116494920001
 H    3.311973005164    4.290439441699    0.012115079999
LI    0.917463005164    0.691049441699    0.012895079999
 O   -2.596874476750   -1.956022937983   -0.036500060902
 C   -1.844902134715   -2.957412068980    0.000789718343
 N   -2.357962551808   -4.245826370847    0.011302456190
 H   -3.369941322205   -4.334095258441   -0.012927769746
 C   -1.549932788777   -5.349533951785    0.051646213267
 H   -2.045818341567   -6.320312952200    0.056692299470
 C   -0.189142885577   -5.203223800877    0.083350772725
 H    0.465548755484   -6.072514657077    0.115681491131
 C    0.322019399005   -3.858482054793    0.072154757448
 N   -0.486195945238   -2.792427550754    0.032446116724
 N    1.648794593875   -3.626776714953    0.101721126294
 H    1.981756918283   -2.669824322591    0.093116657759
 H    2.316931903657   -4.383818869167    0.132104360506
