27

 N    2.377418343962    4.260487823720   -0.011026682022
 C    1.569388343962    5.364187823720   -0.051376682022
 H    2.065268343962    6.334977823720   -0.056416682022
 C    1.864358343962    2.972067823720   -0.000516682022
 O    2.616338343962    1.970677823720    0.036773317978
 N    0.505648343962    2.807087823720   -0.032176682022
 C   -0.302561656038    3.873137823720   -0.071876682022
 N   -1.629331656038    3.641427823720   -0.101446682022
 H   -1.962291656038    2.684487823720   -0.092846682022
 H   -2.297471656038    4.398467823720   -0.131826682022
 C    0.208598343962    5.217877823720   -0.083076682022
 H   -0.446101656038    6.087167823720   -0.115406682022
 H    3.389398343962    4.348757823720    0.013203317978
LI    0.994888343962    0.749367823720    0.013983317978
 O   -2.679191750766   -2.018026027766   -0.037657056600
 C   -1.927219408731   -3.019415158763   -0.000367277355
 N   -2.440279825824   -4.307829460630    0.010145460492
 H   -3.452258596221   -4.396098348224   -0.014084765444
 C   -1.632250062793   -5.411537041568    0.050489217569
 H   -2.128135615583   -6.382316041983    0.055535303772
 C   -0.271460159593   -5.265226890660    0.082193777026
 H    0.383231481468   -6.134517746860    0.114524495433
 C    0.239702124989   -3.920485144575    0.070997761750
 N   -0.568513219254   -2.854430640537    0.031289121026
 N    1.566477319859   -3.688779804736    0.100564130596
 H    1.899439644267   -2.731827412374    0.091959662060
 H    2.234614629641   -4.445821958950    0.130947364808
