27

 N    2.454843682760    4.318806205741   -0.009938444043
 C    1.646813682760    5.422506205741   -0.050288444043
 H    2.142693682760    6.393296205741   -0.055328444043
 C    1.941783682760    3.030386205741    0.000571555957
 O    2.693763682760    2.028996205741    0.037861555957
 N    0.583073682760    2.865406205741   -0.031088444043
 C   -0.225136317240    3.931456205741   -0.070788444043
 N   -1.551906317240    3.699746205741   -0.100358444043
 H   -1.884866317240    2.742806205741   -0.091758444043
 H   -2.220046317240    4.456786205741   -0.130738444043
 C    0.286023682760    5.276196205741   -0.081988444043
 H   -0.368676317240    6.145486205741   -0.114318444043
 H    3.466823682760    4.407076205741    0.014291555957
LI    1.072313682760    0.807686205741    0.015071555957
 O   -2.761509024782   -2.080029117549   -0.038814052298
 C   -2.009536682747   -3.081418248546   -0.001524273053
 N   -2.522597099840   -4.369832550413    0.008988464794
 H   -3.534575870237   -4.458101438007   -0.015241761142
 C   -1.714567336809   -5.473540131351    0.049332221871
 H   -2.210452889600   -6.444319131766    0.054378308073
 C   -0.353777433609   -5.327229980443    0.081036781328
 H    0.300914207452   -6.196520836643    0.113367499734
 C    0.157384850973   -3.982488234358    0.069840766052
 N   -0.650830493270   -2.916433730319    0.030132125328
 N    1.484160045843   -3.750782894519    0.099407134898
 H    1.817122370251   -2.793830502157    0.090802666362
 H    2.152297355624   -4.507825048733    0.129790369110
