27

 N    2.493556352159    4.347965396751   -0.009394325054
 C    1.685526352159    5.451665396751   -0.049744325054
 H    2.181406352159    6.422455396751   -0.054784325054
 C    1.980496352159    3.059545396751    0.001115674946
 O    2.732476352159    2.058155396751    0.038405674946
 N    0.621786352159    2.894565396751   -0.030544325054
 C   -0.186423647841    3.960615396751   -0.070244325054
 N   -1.513193647841    3.728905396751   -0.099814325054
 H   -1.846153647841    2.771965396751   -0.091214325054
 H   -2.181333647841    4.485945396751   -0.130194325054
 C    0.324736352159    5.305355396751   -0.081444325054
 H   -0.329963647841    6.174645396751   -0.113774325054
 H    3.505536352159    4.436235396751    0.014835674946
LI    1.111026352159    0.836845396751    0.015615674946
 O   -2.802667661790   -2.111030662440   -0.039392550147
 C   -2.050695319755   -3.112419793437   -0.002102770902
 N   -2.563755736848   -4.400834095304    0.008409966945
 H   -3.575734507245   -4.489102982899   -0.015820258991
 C   -1.755725973817   -5.504541676242    0.048753724022
 H   -2.251611526608   -6.475320676658    0.053799810224
 C   -0.394936070617   -5.358231525335    0.080458283479
 H    0.259755570444   -6.227522381534    0.112789001885
 C    0.116226213965   -4.013489779250    0.069262268203
 N   -0.691989130278   -2.947435275211    0.029553627479
 N    1.443001408835   -3.781784439410    0.098828637049
 H    1.775963733243   -2.824832047049    0.090224168513
 H    2.111138718616   -4.538826593624    0.129211871261
