27

 N    2.532269021558    4.377124587761   -0.008850206064
 C    1.724239021558    5.480824587761   -0.049200206064
 H    2.220119021558    6.451614587761   -0.054240206064
 C    2.019209021558    3.088704587761    0.001659793936
 O    2.771189021558    2.087314587761    0.038949793936
 N    0.660499021558    2.923724587761   -0.030000206064
 C   -0.147710978442    3.989774587761   -0.069700206064
 N   -1.474480978442    3.758064587761   -0.099270206064
 H   -1.807440978442    2.801124587761   -0.090670206064
 H   -2.142620978442    4.515104587761   -0.129650206064
 C    0.363449021558    5.334514587761   -0.080900206064
 H   -0.291250978442    6.203804587761   -0.113230206064
 H    3.544249021558    4.465394587761    0.015379793936
LI    1.149739021558    0.866004587761    0.016159793936
 O   -2.843826298798   -2.142032207332   -0.039971047996
 C   -2.091853956763   -3.143421338329   -0.002681268751
 N   -2.604914373856   -4.431835640196    0.007831469096
 H   -3.616893144253   -4.520104527790   -0.016398756840
 C   -1.796884610825   -5.535543221134    0.048175226173
 H   -2.292770163616   -6.506322221549    0.053221312375
 C   -0.436094707625   -5.389233070226    0.079879785630
 H    0.218596933436   -6.258523926426    0.112210504036
 C    0.075067576957   -4.044491324141    0.068683770353
 N   -0.733147767286   -2.978436820102    0.028975129630
 N    1.401842771827   -3.812785984302    0.098250139200
 H    1.734805096235   -2.855833591940    0.089645670664
 H    2.069980081608   -4.569828138516    0.128633373412
