27

 N    2.687119699154    4.493761351803   -0.006673730106
 C    1.879089699154    5.597461351803   -0.047023730106
 H    2.374969699154    6.568251351803   -0.052063730106
 C    2.174059699154    3.205341351803    0.003836269894
 O    2.926039699154    2.203951351803    0.041126269894
 N    0.815349699154    3.040361351803   -0.027823730106
 C    0.007139699154    4.106411351803   -0.067523730106
 N   -1.319630300846    3.874701351803   -0.097093730106
 H   -1.652590300846    2.917761351803   -0.088493730106
 H   -1.987770300846    4.631741351803   -0.127473730106
 C    0.518299699154    5.451151351803   -0.078723730106
 H   -0.136400300846    6.320441351803   -0.111053730106
 H    3.699099699154    4.582031351803    0.017556269894
LI    1.304589699154    0.982641351803    0.018336269894
 O   -3.008460846830   -2.266038386898   -0.042285039393
 C   -2.256488504795   -3.267427517895   -0.004995260148
 N   -2.769548921889   -4.555841819762    0.005517477699
 H   -3.781527692286   -4.644110707356   -0.018712748237
 C   -1.961519158857   -5.659549400700    0.045861234776
 H   -2.457404711648   -6.630328401115    0.050907320979
 C   -0.600729255657   -5.513239249792    0.077565794234
 H    0.053962385404   -6.382530105992    0.109896512640
 C   -0.089566971075   -4.168497503707    0.066369778957
 N   -0.897782315319   -3.102442999668    0.026661138234
 N    1.237208223795   -3.936792163868    0.095936147803
 H    1.570170548203   -2.979839771506    0.087331679268
 H    1.905345533576   -4.693834318082    0.126319382015
