27

 N    2.803257707352    4.581238924834   -0.005041373137
 C    1.995227707352    5.684938924834   -0.045391373137
 H    2.491107707352    6.655728924834   -0.050431373137
 C    2.290197707352    3.292818924834    0.005468626863
 O    3.042177707352    2.291428924834    0.042758626863
 N    0.931487707352    3.127838924834   -0.026191373137
 C    0.123277707352    4.193888924834   -0.065891373137
 N   -1.203492292648    3.962178924834   -0.095461373137
 H   -1.536452292648    3.005238924834   -0.086861373137
 H   -1.871632292648    4.719218924834   -0.125841373137
 C    0.634437707352    5.538628924834   -0.077091373137
 H   -0.020262292648    6.407918924834   -0.109421373137
 H    3.815237707352    4.669508924834    0.019188626863
LI    1.420727707352    1.070118924834    0.019968626863
 O   -3.131936757854   -2.359043021572   -0.044020532940
 C   -2.379964415820   -3.360432152569   -0.006730753695
 N   -2.893024832913   -4.648846454436    0.003781984152
 H   -3.905003603310   -4.737115342030   -0.020448241784
 C   -2.084995069881   -5.752554035374    0.044125741229
 H   -2.580880622672   -6.723333035790    0.049171827432
 C   -0.724205166681   -5.606243884467    0.075830300686
 H   -0.069513525620   -6.475534740666    0.108161019093
 C   -0.213042882100   -4.261502138382    0.064634285410
 N   -1.021258226343   -3.195447634343    0.024925644686
 N    1.113732312771   -4.029796798542    0.094200654256
 H    1.446694637179   -3.072844406181    0.085596185720
 H    1.781869622552   -4.786838952756    0.124583888468
