27

 N    2.958108384948    4.697875688875   -0.002864897179
 C    2.150078384948    5.801575688875   -0.043214897179
 H    2.645958384948    6.772365688875   -0.048254897179
 C    2.445048384948    3.409455688875    0.007645102821
 O    3.197028384948    2.408065688875    0.044935102821
 N    1.086338384948    3.244475688875   -0.024014897179
 C    0.278128384948    4.310525688875   -0.063714897179
 N   -1.048641615052    4.078815688875   -0.093284897179
 H   -1.381601615052    3.121875688875   -0.084684897179
 H   -1.716781615052    4.835855688875   -0.123664897179
 C    0.789288384948    5.655265688875   -0.074914897179
 H    0.134588384948    6.524555688875   -0.107244897179
 H    3.970088384948    4.786145688875    0.021365102821
LI    1.575578384948    1.186755688875    0.022145102821
 O   -3.296571305886   -2.483049201138   -0.046334524336
 C   -2.544598963852   -3.484438332135   -0.009044745091
 N   -3.057659380945   -4.772852634002    0.001467992756
 H   -4.069638151342   -4.861121521596   -0.022762233180
 C   -2.249629617914   -5.876560214940    0.041811749833
 H   -2.745515170704   -6.847339215356    0.046857836035
 C   -0.888839714714   -5.730250064032    0.073516309290
 H   -0.234148073653   -6.599540920232    0.105847027696
 C   -0.377677430132   -4.385508317948    0.062320294013
 N   -1.185892774375   -3.319453813909    0.022611653290
 N    0.949097764739   -4.153802978108    0.091886662860
 H    1.282060089146   -3.196850585747    0.083282194324
 H    1.617235074520   -4.910845132322    0.122269897072
