27

 N    2.996821054347    4.727034879886   -0.002320778190
 C    2.188791054347    5.830734879886   -0.042670778190
 H    2.684671054347    6.801524879886   -0.047710778190
 C    2.483761054347    3.438614879886    0.008189221810
 O    3.235741054347    2.437224879886    0.045479221810
 N    1.125051054347    3.273634879886   -0.023470778190
 C    0.316841054347    4.339684879886   -0.063170778190
 N   -1.009928945653    4.107974879886   -0.092740778190
 H   -1.342888945653    3.151034879886   -0.084140778190
 H   -1.678068945653    4.865014879886   -0.123120778190
 C    0.828001054347    5.684424879886   -0.074370778190
 H    0.173301054347    6.553714879886   -0.106700778190
 H    4.008801054347    4.815304879886    0.021909221810
LI    1.614291054347    1.215914879886    0.022689221810
 O   -3.337729942894   -2.514050746030   -0.046913022185
 C   -2.585757600860   -3.515439877027   -0.009623242940
 N   -3.098818017953   -4.803854178893    0.000889494907
 H   -4.110796788350   -4.892123066488   -0.023340731029
 C   -2.290788254922   -5.907561759832    0.041233251984
 H   -2.786673807712   -6.878340760247    0.046279338186
 C   -0.929998351722   -5.761251608924    0.072937811441
 H   -0.275306710661   -6.630542465123    0.105268529847
 C   -0.418836067140   -4.416509862839    0.061741796164
 N   -1.227051411383   -3.350455358800    0.022033155441
 N    0.907939127730   -4.184804522999    0.091308165010
 H    1.240901452138   -3.227852130638    0.082703696475
 H    1.576076437512   -4.941846677214    0.121691399223
