27

 N    3.151671731943    4.843671643927   -0.000144302231
 C    2.343641731943    5.947371643927   -0.040494302231
 H    2.839521731943    6.918161643927   -0.045534302231
 C    2.638611731943    3.555251643927    0.010365697769
 O    3.390591731943    2.553861643927    0.047655697769
 N    1.279901731943    3.390271643927   -0.021294302231
 C    0.471691731943    4.456321643927   -0.060994302231
 N   -0.855078268057    4.224611643927   -0.090564302231
 H   -1.188038268057    3.267671643927   -0.081964302231
 H   -1.523218268057    4.981651643927   -0.120944302231
 C    0.982851731943    5.801061643927   -0.072194302231
 H    0.328151731943    6.670351643927   -0.104524302231
 H    4.163651731943    4.931941643927    0.024085697769
LI    1.769141731943    1.332551643927    0.024865697769
 O   -3.502364490927   -2.638056925596   -0.049227013582
 C   -2.750392148892   -3.639446056593   -0.011937234337
 N   -3.263452565985   -4.927860358459   -0.001424496490
 H   -4.275431336382   -5.016129246054   -0.025654722426
 C   -2.455422802954   -6.031567939398    0.038919260587
 H   -2.951308355744   -7.002346939813    0.043965346790
 C   -1.094632899754   -5.885257788490    0.070623820045
 H   -0.439941258693   -6.754548644689    0.102954538451
 C   -0.583470615172   -4.540516042405    0.059427804768
 N   -1.391685959415   -3.474461538366    0.019719164044
 N    0.743304579698   -4.308810702565    0.088994173614
 H    1.076266904106   -3.351858310204    0.080389705079
 H    1.411441889480   -5.065852856779    0.119377407826
