27

 N    3.229097070741    4.901990025948    0.000943935748
 C    2.421067070741    6.005690025948   -0.039406064252
 H    2.916947070741    6.976480025948   -0.044446064252
 C    2.716037070741    3.613570025948    0.011453935748
 O    3.468017070741    2.612180025948    0.048743935748
 N    1.357327070741    3.448590025948   -0.020206064252
 C    0.549117070741    4.514640025948   -0.059906064252
 N   -0.777652929259    4.282930025948   -0.089476064252
 H   -1.110612929259    3.325990025948   -0.080876064252
 H   -1.445792929259    5.039970025948   -0.119856064252
 C    1.060277070741    5.859380025948   -0.071106064252
 H    0.405577070741    6.728670025948   -0.103436064252
 H    4.241077070741    4.990260025948    0.025173935748
LI    1.846567070741    1.390870025948    0.025953935748
 O   -3.584681764943   -2.700060015379   -0.050384009280
 C   -2.832709422908   -3.701449146376   -0.013094230035
 N   -3.345769840001   -4.989863448242   -0.002581492188
 H   -4.357748610398   -5.078132335837   -0.026811718124
 C   -2.537740076970   -6.093571029181    0.037762264889
 H   -3.033625629761   -7.064350029596    0.042808351092
 C   -1.176950173770   -5.947260878273    0.069466824346
 H   -0.522258532709   -6.816551734472    0.101797542753
 C   -0.665787889188   -4.602519132188    0.058270809070
 N   -1.474003233431   -3.536464628149    0.018562168346
 N    0.660987305682   -4.370813792348    0.087837177916
 H    0.993949630090   -3.413861399987    0.079232709380
 H    1.329124615463   -5.127855946562    0.118220412128
