27

 N    3.267809740140    4.931149216959    0.001488054737
 C    2.459779740140    6.034849216959   -0.038861945263
 H    2.955659740140    7.005639216959   -0.043901945263
 C    2.754749740140    3.642729216959    0.011998054737
 O    3.506729740140    2.641339216959    0.049288054737
 N    1.396039740140    3.477749216959   -0.019661945263
 C    0.587829740140    4.543799216959   -0.059361945263
 N   -0.738940259860    4.312089216959   -0.088931945263
 H   -1.071900259860    3.355149216959   -0.080331945263
 H   -1.407080259860    5.069129216959   -0.119311945263
 C    1.098989740140    5.888539216959   -0.070561945263
 H    0.444289740140    6.757829216959   -0.102891945263
 H    4.279789740140    5.019419216959    0.025718054737
LI    1.885279740140    1.420029216959    0.026498054737
 O   -3.625840401951   -2.731061560270   -0.050962507129
 C   -2.873868059916   -3.732450691267   -0.013672727884
 N   -3.386928477009   -5.020864993134   -0.003159990037
 H   -4.398907247406   -5.109133880728   -0.027390215973
 C   -2.578898713978   -6.124572574072    0.037183767040
 H   -3.074784266769   -7.095351574488    0.042229853243
 C   -1.218108810778   -5.978262423164    0.068888326497
 H   -0.563417169717   -6.847553279364    0.101219044903
 C   -0.706946526196   -4.633520677080    0.057692311221
 N   -1.515161870439   -3.567466173041    0.017983670497
 N    0.619828668674   -4.401815337240    0.087258680067
 H    0.952790993082   -3.444862944879    0.078654211531
 H    1.287965978455   -5.158857491454    0.117641914279
