27

 N    3.422660417737    5.047785981000    0.003664530695
 C    2.614630417737    6.151485981000   -0.036685469305
 H    3.110510417737    7.122275981000   -0.041725469305
 C    2.909600417737    3.759365981000    0.014174530695
 O    3.661580417737    2.757975981000    0.051464530695
 N    1.550890417737    3.594385981000   -0.017485469305
 C    0.742680417737    4.660435981000   -0.057185469305
 N   -0.584089582263    4.428725981000   -0.086755469305
 H   -0.917049582263    3.471785981000   -0.078155469305
 H   -1.252229582263    5.185765981000   -0.117135469305
 C    1.253840417737    6.005175981000   -0.068385469305
 H    0.599140417737    6.874465981000   -0.100715469305
 H    4.434640417737    5.136055981000    0.027894530695
LI    2.040130417737    1.536665981000    0.028674530695
 O   -3.790474949983   -2.855067739836   -0.053276498526
 C   -3.038502607948   -3.856456870833   -0.015986719281
 N   -3.551563025042   -5.144871172700   -0.005473981433
 H   -4.563541795438   -5.233140060294   -0.029704207370
 C   -2.743533262010   -6.248578753638    0.034869775644
 H   -3.239418814801   -7.219357754053    0.039915861846
 C   -1.382743358810   -6.102268602730    0.066574335101
 H   -0.728051717749   -6.971559458930    0.098905053507
 C   -0.871581074228   -4.757526856646    0.055378319824
 N   -1.679796418472   -3.691472352607    0.015669679101
 N    0.455194120642   -4.525821516806    0.084944688670
 H    0.788156445050   -3.568869124444    0.076340220135
 H    1.123331430423   -5.282863671020    0.115327922883
