27

 N    3.461373087136    5.076945172010    0.004208649685
 C    2.653343087136    6.180645172010   -0.036141350315
 H    3.149223087136    7.151435172010   -0.041181350315
 C    2.948313087136    3.788525172010    0.014718649685
 O    3.700293087136    2.787135172010    0.052008649685
 N    1.589603087136    3.623545172010   -0.016941350315
 C    0.781393087136    4.689595172010   -0.056641350315
 N   -0.545376912864    4.457885172010   -0.086211350315
 H   -0.878336912864    3.500945172010   -0.077611350315
 H   -1.213516912864    5.214925172010   -0.116591350315
 C    1.292553087136    6.034335172010   -0.067841350315
 H    0.637853087136    6.903625172010   -0.100171350315
 H    4.473353087136    5.165215172010    0.028438649685
LI    2.078843087136    1.565825172010    0.029218649685
 O   -3.831633586991   -2.886069284728   -0.053854996375
 C   -3.079661244956   -3.887458415724   -0.016565217130
 N   -3.592721662050   -5.175872717591   -0.006052479282
 H   -4.604700432447   -5.264141605186   -0.030282705219
 C   -2.784691899018   -6.279580298529    0.034291277794
 H   -3.280577451809   -7.250359298945    0.039337363997
 C   -1.423901995818   -6.133270147622    0.065995837252
 H   -0.769210354757   -7.002561003821    0.098326555658
 C   -0.912739711236   -4.788528401537    0.054799821975
 N   -1.720955055480   -3.722473897498    0.015091181252
 N    0.414035483634   -4.556823061697    0.084366190821
 H    0.746997808042   -3.599870669336    0.075761722286
 H    1.082172793415   -5.313865215911    0.114749425034
