27

 N    3.732361772929    5.281059509083    0.008017482612
 C    2.924331772929    6.384759509083   -0.032332517388
 H    3.420211772929    7.355549509083   -0.037372517388
 C    3.219301772929    3.992639509083    0.018527482612
 O    3.971281772929    2.991249509083    0.055817482612
 N    1.860591772929    3.827659509083   -0.013132517388
 C    1.052381772929    4.893709509083   -0.052832517388
 N   -0.274388227071    4.661999509083   -0.082402517388
 H   -0.607348227071    3.705059509083   -0.073802517388
 H   -0.942528227071    5.419039509083   -0.112782517388
 C    1.563541772929    6.238449509083   -0.064032517388
 H    0.908841772929    7.107739509083   -0.096362517388
 H    4.744341772929    5.369329509083    0.032247482612
LI    2.349831772929    1.769939509083    0.033027482612
 O   -4.119744046047   -3.103080098968   -0.057904481318
 C   -3.367771704013   -4.104469229965   -0.020614702073
 N   -3.880832121106   -5.392883531832   -0.010101964226
 H   -4.892810891503   -5.481152419426   -0.034332190162
 C   -3.072802358075   -6.496591112770    0.030241792851
 H   -3.568687910865   -7.467370113185    0.035287879053
 C   -1.712012454875   -6.350280961862    0.061946352308
 H   -1.057320813814   -7.219571818062    0.094277070714
 C   -1.200850170293   -5.005539215778    0.050750337032
 N   -2.009065514536   -3.939484711739    0.011041696308
 N    0.125925024578   -4.773833875938    0.080316705878
 H    0.458887348985   -3.816881483576    0.071712237342
 H    0.794062334359   -5.530876030152    0.110699940090
