27

 N    3.771074442328    5.310218700093    0.008561601601
 C    2.963044442328    6.413918700093   -0.031788398399
 H    3.458924442328    7.384708700093   -0.036828398399
 C    3.258014442328    4.021798700093    0.019071601601
 O    4.009994442328    3.020408700093    0.056361601601
 N    1.899304442328    3.856818700093   -0.012588398399
 C    1.091094442328    4.922868700093   -0.052288398399
 N   -0.235675557672    4.691158700093   -0.081858398399
 H   -0.568635557672    3.734218700093   -0.073258398399
 H   -0.903815557672    5.448198700093   -0.112238398399
 C    1.602254442328    6.267608700093   -0.063488398399
 H    0.947554442328    7.136898700093   -0.095818398399
 H    4.783054442328    5.398488700093    0.032791601601
LI    2.388544442328    1.799098700093    0.033571601601
 O   -4.160902683055   -3.134081643859   -0.058482979167
 C   -3.408930341021   -4.135470774856   -0.021193199922
 N   -3.921990758114   -5.423885076723   -0.010680462075
 H   -4.933969528511   -5.512153964318   -0.034910688011
 C   -3.113960995083   -6.527592657661    0.029663295002
 H   -3.609846547873   -7.498371658077    0.034709381204
 C   -1.753171091883   -6.381282506754    0.061367854459
 H   -1.098479450822   -7.250573362953    0.093698572865
 C   -1.242008807301   -5.036540760669    0.050171839182
 N   -2.050224151544   -3.970486256630    0.010463198459
 N    0.084766387569   -4.804835420829    0.079738208029
 H    0.417728711977   -3.847883028468    0.071133739493
 H    0.752903697351   -5.561877575043    0.110121442241
