27

 N    3.964637789324    5.456014655145    0.011282196549
 C    3.156607789324    6.559714655145   -0.029067803451
 H    3.652487789324    7.530504655145   -0.034107803451
 C    3.451577789324    4.167594655145    0.021792196549
 O    4.203557789324    3.166204655145    0.059082196549
 N    2.092867789324    4.002614655145   -0.009867803451
 C    1.284657789324    5.068664655145   -0.049567803451
 N   -0.042112210676    4.836954655145   -0.079137803451
 H   -0.375072210676    3.880014655145   -0.070537803451
 H   -0.710252210676    5.593994655145   -0.109517803451
 C    1.795817789324    6.413404655145   -0.060767803451
 H    1.141117789324    7.282694655145   -0.093097803451
 H    4.976617789324    5.544284655145    0.035512196549
LI    2.582107789324    1.944894655145    0.036292196549
 O   -4.366695868096   -3.289089368317   -0.061375468413
 C   -3.614723526061   -4.290478499314   -0.024085689168
 N   -4.127783943154   -5.578892801181   -0.013572951321
 H   -5.139762713551   -5.667161688775   -0.037803177257
 C   -3.319754180123   -6.682600382119    0.026770805756
 H   -3.815639732913   -7.653379382534    0.031816891959
 C   -1.958964276923   -6.536290231211    0.058475365214
 H   -1.304272635862   -7.405581087411    0.090806083620
 C   -1.447801992341   -5.191548485126    0.047279349937
 N   -2.256017336584   -4.125493981087    0.007570709213
 N   -0.121026797471   -4.959843145287    0.076845718783
 H    0.211935526937   -4.002890752925    0.068241250248
 H    0.547110512310   -5.716885299501    0.107228952995
