27

 N    4.042063128122    5.514333037166    0.012370434528
 C    3.234033128122    6.618033037166   -0.027979565472
 H    3.729913128122    7.588823037166   -0.033019565472
 C    3.529003128122    4.225913037166    0.022880434528
 O    4.280983128122    3.224523037166    0.060170434528
 N    2.170293128122    4.060933037166   -0.008779565472
 C    1.362083128122    5.126983037166   -0.048479565472
 N    0.035313128122    4.895273037166   -0.078049565472
 H   -0.297646871878    3.938333037166   -0.069449565472
 H   -0.632826871878    5.652313037166   -0.108429565472
 C    1.873243128122    6.471723037166   -0.059679565472
 H    1.218543128122    7.341013037166   -0.092009565472
 H    5.054043128122    5.602603037166    0.036600434528
LI    2.659533128122    2.003213037166    0.037380434528
 O   -4.449013142112   -3.351092458100   -0.062532464111
 C   -3.697040800077   -4.352481589097   -0.025242684866
 N   -4.210101217170   -5.640895890964   -0.014729947019
 H   -5.222079987567   -5.729164778558   -0.038960172955
 C   -3.402071454139   -6.744603471902    0.025613810058
 H   -3.897957006930   -7.715382472317    0.030659896261
 C   -2.041281550939   -6.598293320994    0.057318369515
 H   -1.386589909878   -7.467584177194    0.089649087922
 C   -1.530119266357   -5.253551574909    0.046122354239
 N   -2.338334610600   -4.187497070870    0.006413713515
 N   -0.203344071487   -5.021846235070    0.075688723085
 H    0.129618252921   -4.064893842708    0.067084254549
 H    0.464793238294   -5.778888389284    0.106071957297
