27

 N    4.119488466920    5.572651419187    0.013458672507
 C    3.311458466920    6.676351419187   -0.026891327493
 H    3.807338466920    7.647141419187   -0.031931327493
 C    3.606428466920    4.284231419187    0.023968672507
 O    4.358408466920    3.282841419187    0.061258672507
 N    2.247718466920    4.119251419187   -0.007691327493
 C    1.439508466920    5.185301419187   -0.047391327493
 N    0.112738466920    4.953591419187   -0.076961327493
 H   -0.220221533080    3.996651419187   -0.068361327493
 H   -0.555401533080    5.710631419187   -0.107341327493
 C    1.950668466920    6.530041419187   -0.058591327493
 H    1.295968466920    7.399331419187   -0.090921327493
 H    5.131468466920    5.660921419187    0.037688672507
LI    2.736958466920    2.061531419187    0.038468672507
 O   -4.531330416128   -3.413095547883   -0.063689459809
 C   -3.779358074093   -4.414484678880   -0.026399680564
 N   -4.292418491187   -5.702898980747   -0.015886942717
 H   -5.304397261583   -5.791167868341   -0.040117168653
 C   -3.484388728155   -6.806606561685    0.024456814360
 H   -3.980274280946   -7.777385562100    0.029502900562
 C   -2.123598824955   -6.660296410777    0.056161373817
 H   -1.468907183894   -7.529587266977    0.088492092223
 C   -1.612436540373   -5.315554664692    0.044965358541
 N   -2.420651884616   -4.249500160653    0.005256717817
 N   -0.285661345503   -5.083849324853    0.074531727387
 H    0.047300978905   -4.126896932491    0.065927258851
 H    0.382475964278   -5.840891479067    0.104914961599
