27

 N    4.351764483314    5.747606565249    0.016723386445
 C    3.543734483314    6.851306565249   -0.023626613555
 H    4.039614483314    7.822096565249   -0.028666613555
 C    3.838704483314    4.459186565249    0.027233386445
 O    4.590684483314    3.457796565249    0.064523386445
 N    2.479994483314    4.294206565249   -0.004426613555
 C    1.671784483314    5.360256565249   -0.044126613555
 N    0.345014483314    5.128546565249   -0.073696613555
 H    0.012054483314    4.171606565249   -0.065096613555
 H   -0.323125516686    5.885586565249   -0.104076613555
 C    2.182944483314    6.704996565249   -0.055326613555
 H    1.528244483314    7.574286565249   -0.087656613555
 H    5.363744483314    5.835876565249    0.040953386445
LI    2.969234483314    2.236486565249    0.041733386445
 O   -4.778282238176   -3.599104817232   -0.067160446904
 C   -4.026309896142   -4.600493948229   -0.029870667659
 N   -4.539370313235   -5.888908250096   -0.019357929812
 H   -5.551349083632   -5.977177137690   -0.043588155748
 C   -3.731340550203   -6.992615831034    0.020985827265
 H   -4.227226102994   -7.963394831449    0.026031913468
 C   -2.370550647003   -6.846305680126    0.052690386723
 H   -1.715859005942   -7.715596536326    0.085021105129
 C   -1.859388362422   -5.501563934041    0.041494371446
 N   -2.667603706665   -4.435509430002    0.001785730722
 N   -0.532613167551   -5.269858594202    0.071060740292
 H   -0.199650843143   -4.312906201840    0.062456271757
 H    0.135524142230   -6.026900748416    0.101443974504
