9

 C   -1.099381967801   -1.079359377148    0.115124311816
 H   -2.078308967801   -0.587571377148    0.115124311816
 H   -0.992235967801   -1.719168377148    1.003396311816
 H   -0.992235967801   -1.719168377148   -0.773147688184
 C   -0.014754967801   -0.033775377148    0.115124311816
 O   -0.175858967801    1.175775622852    0.115124311816
 O    1.227531032199   -0.610783377148    0.115124311816
 H    1.862067032199    0.127779622852    0.115124311816
LI   -0.175858967801    1.175775622852   -0.984875688184
