9

 C   -1.099381967801   -1.079359377148    0.355838781977
 H   -2.078308967801   -0.587571377148    0.355838781977
 H   -0.992235967801   -1.719168377148    1.244110781977
 H   -0.992235967801   -1.719168377148   -0.532433218023
 C   -0.014754967801   -0.033775377148    0.355838781977
 O   -0.175858967801    1.175775622852    0.355838781977
 O    1.227531032199   -0.610783377148    0.355838781977
 H    1.862067032199    0.127779622852    0.355838781977
LI   -0.175858967801    1.175775622852   -3.044161218023
