9

 C   -1.099381967801   -1.079359377148    0.575621559080
 H   -2.078308967801   -0.587571377148    0.575621559080
 H   -0.992235967801   -1.719168377148    1.463893559080
 H   -0.992235967801   -1.719168377148   -0.312650440920
 C   -0.014754967801   -0.033775377148    0.575621559080
 O   -0.175858967801    1.175775622852    0.575621559080
 O    1.227531032199   -0.610783377148    0.575621559080
 H    1.862067032199    0.127779622852    0.575621559080
LI   -0.175858967801    1.175775622852   -4.924378440920
