9

 C   -1.099381967801   -1.079359377148    0.596553252138
 H   -2.078308967801   -0.587571377148    0.596553252138
 H   -0.992235967801   -1.719168377148    1.484825252138
 H   -0.992235967801   -1.719168377148   -0.291718747862
 C   -0.014754967801   -0.033775377148    0.596553252138
 O   -0.175858967801    1.175775622852    0.596553252138
 O    1.227531032199   -0.610783377148    0.596553252138
 H    1.862067032199    0.127779622852    0.596553252138
LI   -0.175858967801    1.175775622852   -5.103446747862
