9

 C   -1.099381967801   -1.079359377148    0.784938489655
 H   -2.078308967801   -0.587571377148    0.784938489655
 H   -0.992235967801   -1.719168377148    1.673210489655
 H   -0.992235967801   -1.719168377148   -0.103333510345
 C   -0.014754967801   -0.033775377148    0.784938489655
 O   -0.175858967801    1.175775622852    0.784938489655
 O    1.227531032199   -0.610783377148    0.784938489655
 H    1.862067032199    0.127779622852    0.784938489655
LI   -0.175858967801    1.175775622852   -6.715061510345
