17

 C    0.084754460037   -1.454989619251   -1.807779520091
 C    0.586158460037   -0.111359619251   -1.807779520091
 C    1.965784460037    0.182666380749   -1.807779520091
 C    2.852234460037   -0.901884619251   -1.807779520091
 C    2.378004460037   -2.244005619251   -1.807779520091
 C    1.008713460037   -2.531488619251   -1.807779520091
 C   -1.352311539963   -1.369771619251   -1.807779520091
 C   -1.676399539963   -0.017897619251   -1.807779520091
 N   -0.510771539963    0.732025380749   -1.807779520091
 H    2.333555460037    1.213528380749   -1.807779520091
 H    3.929836460037   -0.712799619251   -1.807779520091
 H    3.102868460037   -3.063557619251   -1.807779520091
 H    0.655223460037   -3.567232619251   -1.807779520091
 H   -2.065637539963   -2.192631619251   -1.807779520091
 H   -2.649577539963    0.470982380749   -1.807779520091
 H   -0.470677539963    1.743509380749   -1.807779520091
CS   -0.510771539963    0.732025380749    1.592220479909
