11

 H   -2.563623577138    0.153527340821    1.210751158333
 H   -2.680657682528   -0.596571330903   -0.416317096721
 H   -2.563743947551    1.189327246780   -0.272830358008
 C   -2.243702214629    0.231445830253    0.161750185604
 S   -0.434801986611    0.043421367136    0.030330424096
 S    0.055695528706    1.740843761320    1.215389426569
 C    1.864595753918    1.552680616917    1.084168340711
 H    2.184518832757    0.594788168903    1.518812257752
 H    2.301551237368    2.380683750772    1.662255744078
 H    2.184635841160    1.630543625177    0.035199580004
CS    0.134052552221   -0.630902258124   -0.440511547340
