11

 H   -2.630265288010    0.232524829637    1.265910627731
 H   -2.747299393400   -0.517573842087   -0.361157627323
 H   -2.630385658423    1.268324735596   -0.217670888610
 C   -2.310343925501    0.310443319069    0.216909655002
 S   -0.501443697483    0.122418855952    0.085489893494
 S   -0.010946182166    1.819841250136    1.270548895967
 C    1.797954043046    1.631678105733    1.139327810109
 H    2.117877121885    0.673785657719    1.573971727150
 H    2.234909526496    2.459681239588    1.717415213476
 H    2.117994130288    1.709541113993    0.090359049402
CS    0.181181749115   -0.686769494361   -0.479520472229
