11

 H   -2.896832131499    0.548514784898    1.486548505326
 H   -3.013866236889   -0.201583886826   -0.140519749728
 H   -2.896952501912    1.584314690857    0.002966988985
 C   -2.576910768990    0.626433274330    0.437547532597
 S   -0.768010540972    0.438408811213    0.306127771089
 S   -0.277513025655    2.135831205397    1.491186773562
 C    1.531387199557    1.947668060994    1.359965687704
 H    1.851310278396    0.989775612980    1.794609604745
 H    1.968342683007    2.775671194849    1.938053091071
 H    1.851427286799    2.025531069254    0.310996926997
CS    0.369698536691   -0.910238439308   -0.635556171783
