11

 H   -2.963473842372    0.627512273714    1.541707974725
 H   -3.080507947762   -0.122586398010   -0.085360280329
 H   -2.963594212785    1.663312179673    0.058126458384
 C   -2.643552479863    0.705430763146    0.492707001996
 S   -0.834652251845    0.517406300029    0.361287240488
 S   -0.344154736528    2.214828694213    1.546346242961
 C    1.464745488684    2.026665549810    1.415125157103
 H    1.784668567523    1.068773101796    1.849769074144
 H    1.901700972134    2.854668683665    1.993212560470
 H    1.784785575926    2.104528558070    0.366156396396
CS    0.416827733585   -0.966105675545   -0.674565096672
