11

 H   -3.030115553244    0.706509762529    1.596867444123
 H   -3.147149658634   -0.043588909195   -0.030200810931
 H   -3.030235923657    1.742309668488    0.113285927782
 C   -2.710194190735    0.784428251961    0.547866471394
 S   -0.901293962717    0.596403788844    0.416446709886
 S   -0.410796447400    2.293826183028    1.601505712359
 C    1.398103777812    2.105663038625    1.470284626501
 H    1.718026856651    1.147770590611    1.904928543542
 H    1.835059261262    2.933666172480    2.048372029868
 H    1.718143865054    2.183526046885    0.421315865794
CS    0.463956930479   -1.021972911781   -0.713574021560
