11

 H   -3.163398974989    0.864504740160    1.707186382921
 H   -3.280433080379    0.114406068436    0.080118127867
 H   -3.163519345402    1.900304646119    0.223604866580
 C   -2.843477612480    0.942423229592    0.658185410192
 S   -1.034577384462    0.754398766475    0.526765648684
 S   -0.544079869145    2.451821160659    1.711824651157
 C    1.264820356067    2.263658016256    1.580603565299
 H    1.584743434906    1.305765568242    2.015247482340
 H    1.701775839517    3.091661150111    2.158690968666
 H    1.584860443309    2.341521024516    0.531634804592
CS    0.558215324267   -1.133707384255   -0.791591871337
