11

 H   -3.330003252169    1.061998462199    1.845085056417
 H   -3.447037357559    0.311899790475    0.218016801363
 H   -3.330123622582    2.097798368158    0.361503540076
 C   -3.010081889660    1.139916951631    0.796084083688
 S   -1.201181661642    0.951892488514    0.664664322180
 S   -0.710684146325    2.649314882698    1.849723324653
 C    1.098216078887    2.461151738295    1.718502238795
 H    1.418139157726    1.503259290281    2.153146155836
 H    1.535171562337    3.289154872150    2.296589642162
 H    1.418256166129    2.539014746555    0.669533478088
CS    0.676038316503   -1.273375474846   -0.889114183559
