11

 H   -3.396644963042    1.140995951014    1.900244525816
 H   -3.513679068432    0.390897279290    0.273176270762
 H   -3.396765333455    2.176795856973    0.416663009475
 C   -3.076723600533    1.218914440446    0.851243553087
 S   -1.267823372515    1.030889977329    0.719823791579
 S   -0.777325857198    2.728312371513    1.904882794052
 C    1.031574368014    2.540149227110    1.773661708194
 H    1.351497446853    1.582256779096    2.208305625235
 H    1.468529851464    3.368152360965    2.351749111561
 H    1.351614455256    2.618012235370    0.724692947487
CS    0.723167513397   -1.329242711083   -0.928123108447
