11

 H   -3.496607529350    1.259492184237    1.982983729914
 H   -3.613641634740    0.509393512513    0.355915474860
 H   -3.496727899763    2.295292090196    0.499402213573
 C   -3.176686166841    1.337410673669    0.933982757185
 S   -1.367785938823    1.149386210552    0.802562995677
 S   -0.877288423506    2.846808604736    1.987621998150
 C    0.931611801706    2.658645460333    1.856400912292
 H    1.251534880545    1.700753012319    2.291044829333
 H    1.368567285156    3.486648594188    2.434488315659
 H    1.251651888948    2.736508468593    0.807432151585
CS    0.793861308738   -1.413043565438   -0.986636495780
