11

 H   -3.796495228275    1.614980883907    2.231201342208
 H   -3.913529333665    0.864882212183    0.604133087154
 H   -3.796615598688    2.650780789866    0.747619825867
 C   -3.476573865766    1.692899373339    1.182200369479
 S   -1.667673637748    1.504874910222    1.050780607971
 S   -1.177176122431    3.202297304406    2.235839610444
 C    0.631724102781    3.014134160003    2.104618524586
 H    0.951647181620    2.056241711989    2.539262441627
 H    1.068679586231    3.842137293858    2.682705927953
 H    0.951764190023    3.091997168263    1.055649763879
CS    1.005942694761   -1.664446128503   -1.162176657779
