11

 H   -3.863136939148    1.693978372722    2.286360811607
 H   -3.980171044538    0.943879700998    0.659292556553
 H   -3.863257309561    2.729778278681    0.802779295266
 C   -3.543215576639    1.771896862154    1.237359838878
 S   -1.734315348621    1.583872399037    1.105940077370
 S   -1.243817833304    3.281294793221    2.290999079843
 C    0.565082391908    3.093131648818    2.159777993985
 H    0.885005470747    2.135239200804    2.594421911026
 H    1.002037875358    3.921134782673    2.737865397352
 H    0.885122479150    3.170994657078    1.110809233278
CS    1.053071891655   -1.720313364740   -1.201185582667
