11

 H   -3.929778650020    1.772975861538    2.341520281005
 H   -4.046812755410    1.022877189814    0.714452025951
 H   -3.929899020433    2.808775767497    0.857938764664
 C   -3.609857287511    1.850894350970    1.292519308276
 S   -1.800957059493    1.662869887853    1.161099546768
 S   -1.310459544176    3.360292282037    2.346158549241
 C    0.498440681036    3.172129137634    2.214937463383
 H    0.818363759875    2.214236689620    2.649581380424
 H    0.935396164486    4.000132271489    2.793024866750
 H    0.818480768278    3.249992145894    1.165968702676
CS    1.100201088549   -1.776180600977   -1.240194507556
