11

 H   -3.963099505456    1.812474605945    2.369100015705
 H   -4.080133610846    1.062375934221    0.742031760651
 H   -3.963219875869    2.848274511904    0.885518499364
 C   -3.643178142947    1.890393095377    1.320099042976
 S   -1.834277914929    1.702368632260    1.188679281468
 S   -1.343780399612    3.399791026444    2.373738283941
 C    0.465119825600    3.211627882041    2.242517198083
 H    0.785042904439    2.253735434027    2.677161115124
 H    0.902075309050    4.039631015896    2.820604601450
 H    0.785159912842    3.289490890301    1.193548437376
CS    1.123765686996   -1.804114219095   -1.259698970000
