11

 H   -3.996420360892    1.851973350353    2.396679750404
 H   -4.113454466282    1.101874678629    0.769611495350
 H   -3.996540731305    2.887773256312    0.913098234063
 C   -3.676498998383    1.929891839785    1.347678777675
 S   -1.867598770365    1.741867376668    1.216259016167
 S   -1.377101255048    3.439289770852    2.401318018640
 C    0.431798970164    3.251126626449    2.270096932782
 H    0.751722049003    2.293234178435    2.704740849823
 H    0.868754453614    4.079129760304    2.848184336149
 H    0.751839057406    3.328989634709    1.221128172075
CS    1.147330285443   -1.832047837213   -1.279203432444
