11

 H   -4.029741216328    1.891472094761    2.424259485103
 H   -4.146775321718    1.141373423037    0.797191230049
 H   -4.029861586741    2.927272000720    0.940677968762
 C   -3.709819853819    1.969390584193    1.375258512374
 S   -1.900919625801    1.781366121076    1.243838750866
 S   -1.410422110484    3.478788515260    2.428897753339
 C    0.398478114728    3.290625370857    2.297676667481
 H    0.718401193567    2.332732922843    2.732320584522
 H    0.835433598178    4.118628504712    2.875764070848
 H    0.718518201970    3.368488379117    1.248707906774
CS    1.170894883890   -1.859981455332   -1.298707894889
