11

 H   -4.096382927201    1.970469583576    2.479418954502
 H   -4.213417032591    1.220370911852    0.852350699448
 H   -4.096503297614    3.006269489535    0.995837438161
 C   -3.776461564692    2.048388073008    1.430417981773
 S   -1.967561336674    1.860363609891    1.298998220265
 S   -1.477063821357    3.557786004075    2.484057222738
 C    0.331836403855    3.369622859672    2.352836136880
 H    0.651759482694    2.411730411658    2.787480053921
 H    0.768791887305    4.197625993527    2.930923540247
 H    0.651876491097    3.447485867932    1.303867376173
CS    1.218024080784   -1.915848691568   -1.337716819777
