11

 H   -4.163024638073    2.049467072392    2.534578423901
 H   -4.280058743463    1.299368400668    0.907510168847
 H   -4.163145008486    3.085266978351    1.050996907560
 C   -3.843103275564    2.127385561824    1.485577451172
 S   -2.034203047546    1.939361098707    1.354157689664
 S   -1.543705532229    3.636783492891    2.539216692137
 C    0.265194692983    3.448620348488    2.407995606279
 H    0.585117771822    2.490727900474    2.842639523320
 H    0.702150176433    4.276623482343    2.986083009646
 H    0.585234780225    3.526483356748    1.359026845572
CS    1.265153277679   -1.971715927805   -1.376725744666
