11

 H   -4.196345493509    2.088965816799    2.562158158600
 H   -4.313379598899    1.338867145075    0.935089903546
 H   -4.196465863922    3.124765722758    1.078576642259
 C   -3.876424131000    2.166884306231    1.513157185871
 S   -2.067523902982    1.978859843114    1.381737424363
 S   -1.577026387665    3.676282237298    2.566796426836
 C    0.231873837547    3.488119092895    2.435575340978
 H    0.551796916386    2.530226644881    2.870219258019
 H    0.668829320997    4.316122226750    3.013662744345
 H    0.551913924789    3.565982101155    1.386606580271
CS    1.288717876126   -1.999649545924   -1.396230207110
