11

 H   -4.296308059817    2.207462050022    2.644897362698
 H   -4.413342165207    1.457363378298    1.017829107644
 H   -4.296428430230    3.243261955981    1.161315846357
 C   -3.976386697308    2.285380539454    1.595896389969
 S   -2.167486469290    2.097356076337    1.464476628461
 S   -1.676988953973    3.794778470521    2.649535630934
 C    0.131911271239    3.606615326118    2.518314545076
 H    0.451834350078    2.648722878104    2.952958462117
 H    0.568866754689    4.434618459973    3.096401948443
 H    0.451951358481    3.684478334378    1.469345784369
CS    1.359411671467   -2.083450400279   -1.454743594443
