11

 H   -4.396270626126    2.325958283245    2.727636566796
 H   -4.513304731516    1.575859611521    1.100568311742
 H   -4.396390996539    3.361758189204    1.244055050455
 C   -4.076349263617    2.403876772677    1.678635594067
 S   -2.267449035599    2.215852309560    1.547215832559
 S   -1.776951520282    3.913274703744    2.732274835032
 C    0.031948704930    3.725111559341    2.601053749174
 H    0.351871783769    2.767219111327    3.035697666215
 H    0.468904188380    4.553114693196    3.179141152541
 H    0.351988792172    3.802974567601    1.552084988467
CS    1.430105466808   -2.167251254634   -1.513256981776
