11

 H   -4.429591481562    2.365457027653    2.755216301495
 H   -4.546625586952    1.615358355929    1.128148046441
 H   -4.429711851975    3.401256933612    1.271634785154
 C   -4.109670119053    2.443375517085    1.706215328766
 S   -2.300769891035    2.255351053968    1.574795567258
 S   -1.810272375718    3.952773448152    2.759854569731
 C   -0.001372150506    3.764610303749    2.628633483873
 H    0.318550928333    2.806717855735    3.063277400914
 H    0.435583332944    4.592613437604    3.206720887240
 H    0.318667936736    3.842473312009    1.579664723166
CS    1.453670065255   -2.195184872752   -1.532761444220
