11

 H   -4.562874903307    2.523452005284    2.865535240292
 H   -4.679909008697    1.773353333560    1.238466985238
 H   -4.562995273720    3.559251911243    1.381953723951
 C   -4.242953540798    2.601370494716    1.816534267563
 S   -2.434053312780    2.413346031599    1.685114506055
 S   -1.943555797463    4.110768425783    2.870173508528
 C   -0.134655572251    3.922605281380    2.738952422670
 H    0.185267506588    2.964712833366    3.173596339711
 H    0.302299911199    4.750608415235    3.317039826037
 H    0.185384514991    4.000468289640    1.689983661963
CS    1.547928459043   -2.306919345225   -1.610779293997
