11

 H   -4.696158325051    2.681446982915    2.975854179090
 H   -4.813192430441    1.931348311191    1.348785924036
 H   -4.696278695464    3.717246888874    1.492272662749
 C   -4.376236962542    2.759365472347    1.926853206361
 S   -2.567336734524    2.571341009230    1.795433444853
 S   -2.076839219207    4.268763403414    2.980492447326
 C   -0.267938993995    4.080600259011    2.849271361468
 H    0.051984084844    3.122707810997    3.283915278509
 H    0.169016489455    4.908603392866    3.427358764835
 H    0.052101093247    4.158463267271    1.800302600761
CS    1.642186852831   -2.418653817699   -1.688797143774
