11

 H   -4.796120891360    2.799943216138    3.058593383188
 H   -4.913154996750    2.049844544414    1.431525128134
 H   -4.796241261773    3.835743122097    1.575011866847
 C   -4.476199528851    2.877861705570    2.009592410459
 S   -2.667299300833    2.689837242453    1.878172648951
 S   -2.176801785516    4.387259636637    3.063231651424
 C   -0.367901560304    4.199096492234    2.932010565566
 H   -0.047978481465    3.241204044220    3.366654482607
 H    0.069053923146    5.027099626089    3.510097968933
 H   -0.047861473062    4.276959500494    1.883041804859
CS    1.712880648172   -2.502454672054   -1.747310531107
