11

 H   -5.029366879413    3.076434426992    3.251651526083
 H   -5.146400984803    2.326335755268    1.624583271029
 H   -5.029487249826    4.112234332951    1.768070009742
 C   -4.709445516904    3.154352916424    2.202650553354
 S   -2.900545288886    2.966328453307    2.071230791846
 S   -2.410047773569    4.663750847491    3.256289794319
 C   -0.601147548357    4.475587703088    3.125068708461
 H   -0.281224469518    3.517695255074    3.559712625502
 H   -0.164192064907    5.303590836943    3.703156111828
 H   -0.281107461115    4.553450711348    2.076099947754
CS    1.877832837302   -2.697989998882   -1.883841768217
