11

 H   -5.129329445721    3.194930660215    3.334390730181
 H   -5.246363551111    2.444831988491    1.707322475127
 H   -5.129449816134    4.230730566174    1.850809213840
 C   -4.809408083212    3.272849149647    2.285389757452
 S   -3.000507855194    3.084824686530    2.153969995944
 S   -2.510010339877    4.782247080714    3.339028998417
 C   -0.701110114665    4.594083936311    3.207807912559
 H   -0.381187035826    3.636191488297    3.642451829600
 H   -0.264154631215    5.422087070166    3.785895315926
 H   -0.381070027423    4.671946944571    2.158839151852
CS    1.948526632643   -2.781790853237   -1.942355155550
