11

 H   -5.162650301157    3.234429404623    3.361970464880
 H   -5.279684406547    2.484330732899    1.734902209826
 H   -5.162770671570    4.270229310582    1.878388948539
 C   -4.842728938648    3.312347894055    2.312969492151
 S   -3.033828710630    3.124323430938    2.181549730643
 S   -2.543331195313    4.821745825122    3.366608733116
 C   -0.734430970101    4.633582680719    3.235387647258
 H   -0.414507891262    3.675690232705    3.670031564299
 H   -0.297475486651    5.461585814574    3.813475050625
 H   -0.414390882859    4.711445688979    2.186418886551
CS    1.972091231090   -2.809724471356   -1.961859617994
