11

 H   -5.329254578338    3.431923126661    3.499869138377
 H   -5.446288683728    2.681824454937    1.872800883323
 H   -5.329374948751    4.467723032620    2.016287622036
 C   -5.009333215829    3.509841616093    2.450868165648
 S   -3.200432987811    3.321817152976    2.319448404140
 S   -2.709935472494    5.019239547160    3.504507406613
 C   -0.901035247282    4.831076402757    3.373286320755
 H   -0.581112168443    3.873183954743    3.807930237796
 H   -0.464079763832    5.659079536612    3.951373724122
 H   -0.580995160040    4.908939411017    2.324317560048
CS    2.089914223325   -2.949392561947   -2.059381930216
