11

 H   -5.529179710955    3.668915593108    3.665347546573
 H   -5.646213816345    2.918816921384    2.038279291519
 H   -5.529300081368    4.704715499067    2.181766030232
 C   -5.209258348446    3.746834082540    2.616346573844
 S   -3.400358120428    3.558809619423    2.484926812336
 S   -2.909860605111    5.256232013607    3.669985814809
 C   -1.100960379899    5.068068869204    3.538764728951
 H   -0.781037301060    4.110176421190    3.973408645992
 H   -0.664004896449    5.896072003059    4.116852132318
 H   -0.780920292657    5.145931877464    2.489795968244
CS    2.231301814007   -3.116994270658   -2.176408704881
