10

 C    0.895746318174   -2.139404383863    0.000000000000
 C   -0.203552681826   -1.090544383863    0.000000000000
 N   -1.483160681826   -1.594333383863    0.000000000000
 H   -2.257833681826   -0.943749383863    0.000000000000
 H   -1.669831681826   -2.586384383863    0.000000000000
 O    0.018039318174    0.122457616137    0.000000000000
 H    1.866411318174   -1.630259383863    0.000000000000
 H    0.816108318174   -2.780409383863    0.892247000000
 H    0.816108318174   -2.780409383863   -0.892247000000
 K    0.323540637567    1.794782029595    0.000000000000
