10

 C    0.881456565344   -2.217626967542    0.000000000000
 C   -0.217842434656   -1.168766967542    0.000000000000
 N   -1.497450434656   -1.672555967542    0.000000000000
 H   -2.272123434656   -1.021971967542    0.000000000000
 H   -1.684121434656   -2.664606967542    0.000000000000
 O    0.003749565344    0.044235032458    0.000000000000
 H    1.852121565344   -1.708481967542    0.000000000000
 H    0.801818565344   -2.858631967542    0.892247000000
 H    0.801818565344   -2.858631967542   -0.892247000000
 K    0.345192216431    1.913303494559    0.000000000000
