10

 C    0.838587306853   -2.452294718577    0.000000000000
 C   -0.260711693147   -1.403434718577    0.000000000000
 N   -1.540319693147   -1.907223718577    0.000000000000
 H   -2.314992693147   -1.256639718577    0.000000000000
 H   -1.726990693147   -2.899274718577    0.000000000000
 O   -0.039119693147   -0.190432718577    0.000000000000
 H    1.809252306853   -1.943149718577    0.000000000000
 H    0.758949306853   -3.093299718577    0.892247000000
 H    0.758949306853   -3.093299718577   -0.892247000000
 K    0.410146953020    2.268867889450    0.000000000000
