10

 C    0.831442430438   -2.491406010416    0.000000000000
 C   -0.267856569562   -1.442546010416    0.000000000000
 N   -1.547464569562   -1.946335010416    0.000000000000
 H   -2.322137569562   -1.295751010416    0.000000000000
 H   -1.734135569562   -2.938386010416    0.000000000000
 O   -0.046264569562   -0.229544010416    0.000000000000
 H    1.802107430438   -1.982261010416    0.000000000000
 H    0.751804430438   -3.132411010416    0.892247000000
 H    0.751804430438   -3.132411010416   -0.892247000000
 K    0.420972742452    2.328128621932    0.000000000000
