10

 C    0.810007801193   -2.608739885934    0.000000000000
 C   -0.289291198807   -1.559879885934    0.000000000000
 N   -1.568899198807   -2.063668885934    0.000000000000
 H   -2.343572198807   -1.413084885934    0.000000000000
 H   -1.755570198807   -3.055719885934    0.000000000000
 O   -0.067699198807   -0.346877885934    0.000000000000
 H    1.780672801193   -2.099594885934    0.000000000000
 H    0.730369801193   -3.249744885934    0.892247000000
 H    0.730369801193   -3.249744885934   -0.892247000000
 K    0.453450110747    2.505910819378    0.000000000000
