10

 C    0.802862924778   -2.647851177773    0.000000000000
 C   -0.296436075222   -1.598991177773    0.000000000000
 N   -1.576044075222   -2.102780177773    0.000000000000
 H   -2.350717075222   -1.452196177773    0.000000000000
 H   -1.762715075222   -3.094831177773    0.000000000000
 O   -0.074844075222   -0.385989177773    0.000000000000
 H    1.773527924778   -2.138706177773    0.000000000000
 H    0.723224924778   -3.288856177773    0.892247000000
 H    0.723224924778   -3.288856177773   -0.892247000000
 K    0.464275900178    2.565171551860    0.000000000000
