10

 C    0.795718048363   -2.686962469612    0.000000000000
 C   -0.303580951637   -1.638102469612    0.000000000000
 N   -1.583188951637   -2.141891469612    0.000000000000
 H   -2.357861951637   -1.491307469612    0.000000000000
 H   -1.769859951637   -3.133942469612    0.000000000000
 O   -0.081988951637   -0.425100469612    0.000000000000
 H    1.766383048363   -2.177817469612    0.000000000000
 H    0.716080048363   -3.327967469612    0.892247000000
 H    0.716080048363   -3.327967469612   -0.892247000000
 K    0.475101689610    2.624432284342    0.000000000000
