10

 C    0.774283419118   -2.804296345129    0.000000000000
 C   -0.325015580882   -1.755436345129    0.000000000000
 N   -1.604623580882   -2.259225345129    0.000000000000
 H   -2.379296580882   -1.608641345129    0.000000000000
 H   -1.791294580882   -3.251276345129    0.000000000000
 O   -0.103423580882   -0.542434345129    0.000000000000
 H    1.744948419118   -2.295151345129    0.000000000000
 H    0.694645419118   -3.445301345129    0.892247000000
 H    0.694645419118   -3.445301345129   -0.892247000000
 K    0.507579057905    2.802214481787    0.000000000000
