10

 C    0.767138542703   -2.843407636969    0.000000000000
 C   -0.332160457297   -1.794547636969    0.000000000000
 N   -1.611768457297   -2.298336636969    0.000000000000
 H   -2.386441457297   -1.647752636969    0.000000000000
 H   -1.798439457297   -3.290387636969    0.000000000000
 O   -0.110568457297   -0.581545636969    0.000000000000
 H    1.737803542703   -2.334262636969    0.000000000000
 H    0.687500542703   -3.484412636969    0.892247000000
 H    0.687500542703   -3.484412636969   -0.892247000000
 K    0.518404847337    2.861475214269    0.000000000000
