10

 C    0.745703913457   -2.960741512486    0.000000000000
 C   -0.353595086543   -1.911881512486    0.000000000000
 N   -1.633203086543   -2.415670512486    0.000000000000
 H   -2.407876086543   -1.765086512486    0.000000000000
 H   -1.819874086543   -3.407721512486    0.000000000000
 O   -0.132003086543   -0.698879512486    0.000000000000
 H    1.716368913457   -2.451596512486    0.000000000000
 H    0.666065913457   -3.601746512486    0.892247000000
 H    0.666065913457   -3.601746512486   -0.892247000000
 K    0.550882215631    3.039257411715    0.000000000000
