10

 C    0.724269284212   -3.078075388004    0.000000000000
 C   -0.375029715788   -2.029215388004    0.000000000000
 N   -1.654637715788   -2.533004388004    0.000000000000
 H   -2.429310715788   -1.882420388004    0.000000000000
 H   -1.841308715788   -3.525055388004    0.000000000000
 O   -0.153437715788   -0.816213388004    0.000000000000
 H    1.694934284212   -2.568930388004    0.000000000000
 H    0.644631284212   -3.719080388004    0.892247000000
 H    0.644631284212   -3.719080388004   -0.892247000000
 K    0.583359583926    3.217039609161    0.000000000000
