10

 C    0.717124407797   -3.117186679843    0.000000000000
 C   -0.382174592203   -2.068326679843    0.000000000000
 N   -1.661782592203   -2.572115679843    0.000000000000
 H   -2.436455592203   -1.921531679843    0.000000000000
 H   -1.848453592203   -3.564166679843    0.000000000000
 O   -0.160582592203   -0.855324679843    0.000000000000
 H    1.687789407797   -2.608041679843    0.000000000000
 H    0.637486407797   -3.758191679843    0.892247000000
 H    0.637486407797   -3.758191679843   -0.892247000000
 K    0.594185373358    3.276300341642    0.000000000000
