10

 C    0.709979531382   -3.156297971682    0.000000000000
 C   -0.389319468618   -2.107437971682    0.000000000000
 N   -1.668927468618   -2.611226971682    0.000000000000
 H   -2.443600468618   -1.960642971682    0.000000000000
 H   -1.855598468618   -3.603277971682    0.000000000000
 O   -0.167727468618   -0.894435971682    0.000000000000
 H    1.680644531382   -2.647152971682    0.000000000000
 H    0.630341531382   -3.797302971682    0.892247000000
 H    0.630341531382   -3.797302971682   -0.892247000000
 K    0.605011162789    3.335561074124    0.000000000000
