10

 C    0.702834654967   -3.195409263521    0.000000000000
 C   -0.396464345033   -2.146549263521    0.000000000000
 N   -1.676072345033   -2.650338263521    0.000000000000
 H   -2.450745345033   -1.999754263521    0.000000000000
 H   -1.862743345033   -3.642389263521    0.000000000000
 O   -0.174872345033   -0.933547263521    0.000000000000
 H    1.673499654967   -2.686264263521    0.000000000000
 H    0.623196654967   -3.836414263521    0.892247000000
 H    0.623196654967   -3.836414263521   -0.892247000000
 K    0.615836952221    3.394821806606    0.000000000000
