10

 C    0.688544902137   -3.273631847200    0.000000000000
 C   -0.410754097863   -2.224771847200    0.000000000000
 N   -1.690362097863   -2.728560847200    0.000000000000
 H   -2.465035097863   -2.077976847200    0.000000000000
 H   -1.877033097863   -3.720611847200    0.000000000000
 O   -0.189162097863   -1.011769847200    0.000000000000
 H    1.659209902137   -2.764486847200    0.000000000000
 H    0.608906902137   -3.914636847200    0.892247000000
 H    0.608906902137   -3.914636847200   -0.892247000000
 K    0.637488531084    3.513343271570    0.000000000000
