10

 C    0.681400025722   -3.312743139039    0.000000000000
 C   -0.417898974278   -2.263883139039    0.000000000000
 N   -1.697506974278   -2.767672139039    0.000000000000
 H   -2.472179974278   -2.117088139039    0.000000000000
 H   -1.884177974278   -3.759723139039    0.000000000000
 O   -0.196306974278   -1.050881139039    0.000000000000
 H    1.652065025722   -2.803598139039    0.000000000000
 H    0.601762025722   -3.953748139039    0.892247000000
 H    0.601762025722   -3.953748139039   -0.892247000000
 K    0.648314320516    3.572604004052    0.000000000000
