10

 C    0.674255149307   -3.351854430878    0.000000000000
 C   -0.425043850693   -2.302994430878    0.000000000000
 N   -1.704651850693   -2.806783430878    0.000000000000
 H   -2.479324850693   -2.156199430878    0.000000000000
 H   -1.891322850693   -3.798834430878    0.000000000000
 O   -0.203451850693   -1.089992430878    0.000000000000
 H    1.644920149307   -2.842709430878    0.000000000000
 H    0.594617149307   -3.992859430878    0.892247000000
 H    0.594617149307   -3.992859430878   -0.892247000000
 K    0.659140109948    3.631864736534    0.000000000000
