10

 C    0.645675643647   -3.508299598235    0.000000000000
 C   -0.453623356353   -2.459439598235    0.000000000000
 N   -1.733231356353   -2.963228598235    0.000000000000
 H   -2.507904356353   -2.312644598235    0.000000000000
 H   -1.919902356353   -3.955279598235    0.000000000000
 O   -0.232031356353   -1.246437598235    0.000000000000
 H    1.616340643647   -2.999154598235    0.000000000000
 H    0.566037643647   -4.149304598235    0.892247000000
 H    0.566037643647   -4.149304598235   -0.892247000000
 K    0.702443267674    3.868907666461    0.000000000000
