10

 C    0.617096137986   -3.664744765591    0.000000000000
 C   -0.482202862014   -2.615884765591    0.000000000000
 N   -1.761810862014   -3.119673765591    0.000000000000
 H   -2.536483862014   -2.469089765591    0.000000000000
 H   -1.948481862014   -4.111724765591    0.000000000000
 O   -0.260610862014   -1.402882765591    0.000000000000
 H    1.587761137986   -3.155599765591    0.000000000000
 H    0.537458137986   -4.305749765591    0.892247000000
 H    0.537458137986   -4.305749765591   -0.892247000000
 K    0.745746425400    4.105950596389    0.000000000000
