10

 C    0.609951261571   -3.703856057431    0.000000000000
 C   -0.489347738429   -2.654996057431    0.000000000000
 N   -1.768955738429   -3.158785057431    0.000000000000
 H   -2.543628738429   -2.508201057431    0.000000000000
 H   -1.955626738429   -4.150836057431    0.000000000000
 O   -0.267755738429   -1.441994057431    0.000000000000
 H    1.580616261571   -3.194711057431    0.000000000000
 H    0.530313261571   -4.344861057431    0.892247000000
 H    0.530313261571   -4.344861057431   -0.892247000000
 K    0.756572214832    4.165211328871    0.000000000000
