10

 C    0.595661508741   -3.782078641109    0.000000000000
 C   -0.503637491259   -2.733218641109    0.000000000000
 N   -1.783245491259   -3.237007641109    0.000000000000
 H   -2.557918491259   -2.586423641109    0.000000000000
 H   -1.969916491259   -4.229058641109    0.000000000000
 O   -0.282045491259   -1.520216641109    0.000000000000
 H    1.566326508741   -3.272933641109    0.000000000000
 H    0.516023508741   -4.423083641109    0.892247000000
 H    0.516023508741   -4.423083641109   -0.892247000000
 K    0.778223793695    4.283732793835    0.000000000000
