10

 C    0.581371755911   -3.860301224787    0.000000000000
 C   -0.517927244089   -2.811441224787    0.000000000000
 N   -1.797535244089   -3.315230224787    0.000000000000
 H   -2.572208244089   -2.664646224787    0.000000000000
 H   -1.984206244089   -4.307281224787    0.000000000000
 O   -0.296335244089   -1.598439224787    0.000000000000
 H    1.552036755911   -3.351156224787    0.000000000000
 H    0.501733755911   -4.501306224787    0.892247000000
 H    0.501733755911   -4.501306224787   -0.892247000000
 K    0.799875372559    4.402254258799    0.000000000000
