10

 C    0.559937126666   -3.977635100305    0.000000000000
 C   -0.539361873334   -2.928775100305    0.000000000000
 N   -1.818969873334   -3.432564100305    0.000000000000
 H   -2.593642873334   -2.781980100305    0.000000000000
 H   -2.005640873334   -4.424615100305    0.000000000000
 O   -0.317769873334   -1.715773100305    0.000000000000
 H    1.530602126666   -3.468490100305    0.000000000000
 H    0.480299126666   -4.618640100305    0.892247000000
 H    0.480299126666   -4.618640100305   -0.892247000000
 K    0.832352740853    4.580036456244    0.000000000000
