10

 C    0.524212744590   -4.173191559501    0.000000000000
 C   -0.575086255410   -3.124331559501    0.000000000000
 N   -1.854694255410   -3.628120559501    0.000000000000
 H   -2.629367255410   -2.977536559501    0.000000000000
 H   -2.041365255410   -4.620171559501    0.000000000000
 O   -0.353494255410   -1.911329559501    0.000000000000
 H    1.494877744590   -3.664046559501    0.000000000000
 H    0.444574744590   -4.814196559501    0.892247000000
 H    0.444574744590   -4.814196559501   -0.892247000000
 K    0.886481688011    4.876340118654    0.000000000000
