10

 C    0.509922991760   -4.251414143179    0.000000000000
 C   -0.589376008240   -3.202554143179    0.000000000000
 N   -1.868984008240   -3.706343143179    0.000000000000
 H   -2.643657008240   -3.055759143179    0.000000000000
 H   -2.055655008240   -4.698394143179    0.000000000000
 O   -0.367784008240   -1.989552143179    0.000000000000
 H    1.480587991760   -3.742269143179    0.000000000000
 H    0.430284991760   -4.892419143179    0.892247000000
 H    0.430284991760   -4.892419143179   -0.892247000000
 K    0.908133266875    4.994861583618    0.000000000000
