10

 C    0.502778115345   -4.290525435018    0.000000000000
 C   -0.596520884655   -3.241665435018    0.000000000000
 N   -1.876128884655   -3.745454435018    0.000000000000
 H   -2.650801884655   -3.094870435018    0.000000000000
 H   -2.062799884655   -4.737505435018    0.000000000000
 O   -0.374928884655   -2.028663435018    0.000000000000
 H    1.473443115345   -3.781380435018    0.000000000000
 H    0.423140115345   -4.931530435018    0.892247000000
 H    0.423140115345   -4.931530435018   -0.892247000000
 K    0.918959056306    5.054122316099    0.000000000000
