10

 C    0.488488362515   -4.368748018697    0.000000000000
 C   -0.610810637485   -3.319888018697    0.000000000000
 N   -1.890418637485   -3.823677018697    0.000000000000
 H   -2.665091637485   -3.173093018697    0.000000000000
 H   -2.077089637485   -4.815728018697    0.000000000000
 O   -0.389218637485   -2.106886018697    0.000000000000
 H    1.459153362515   -3.859603018697    0.000000000000
 H    0.408850362515   -5.009753018697    0.892247000000
 H    0.408850362515   -5.009753018697   -0.892247000000
 K    0.940610635170    5.172643781063    0.000000000000
