10

 C    0.459908856855   -4.525193186053    0.000000000000
 C   -0.639390143145   -3.476333186053    0.000000000000
 N   -1.918998143145   -3.980122186053    0.000000000000
 H   -2.693671143145   -3.329538186053    0.000000000000
 H   -2.105669143145   -4.972173186053    0.000000000000
 O   -0.417798143145   -2.263331186053    0.000000000000
 H    1.430573856855   -4.016048186053    0.000000000000
 H    0.380270856855   -5.166198186053    0.892247000000
 H    0.380270856855   -5.166198186053   -0.892247000000
 K    0.983913792896    5.409686710991    0.000000000000
