10

 C    0.438474227610   -4.642527061571    0.000000000000
 C   -0.660824772390   -3.593667061571    0.000000000000
 N   -1.940432772390   -4.097456061571    0.000000000000
 H   -2.715105772390   -3.446872061571    0.000000000000
 H   -2.127103772390   -5.089507061571    0.000000000000
 O   -0.439232772390   -2.380665061571    0.000000000000
 H    1.409139227610   -4.133382061571    0.000000000000
 H    0.358836227610   -5.283532061571    0.892247000000
 H    0.358836227610   -5.283532061571   -0.892247000000
 K    1.016391161191    5.587468908437    0.000000000000
