10

 C    0.402749845534   -4.838083520767    0.000000000000
 C   -0.696549154466   -3.789223520767    0.000000000000
 N   -1.976157154466   -4.293012520767    0.000000000000
 H   -2.750830154466   -3.642428520767    0.000000000000
 H   -2.162828154466   -5.285063520767    0.000000000000
 O   -0.474957154466   -2.576221520767    0.000000000000
 H    1.373414845534   -4.328938520767    0.000000000000
 H    0.323111845534   -5.479088520767    0.892247000000
 H    0.323111845534   -5.479088520767   -0.892247000000
 K    1.070520108349    5.883772570846    0.000000000000
