10

 C    0.381315216289   -4.955417396284    0.000000000000
 C   -0.717983783711   -3.906557396284    0.000000000000
 N   -1.997591783711   -4.410346396284    0.000000000000
 H   -2.772264783711   -3.759762396284    0.000000000000
 H   -2.184262783711   -5.402397396284    0.000000000000
 O   -0.496391783711   -2.693555396284    0.000000000000
 H    1.351980216289   -4.446272396284    0.000000000000
 H    0.301677216289   -5.596422396284    0.892247000000
 H    0.301677216289   -5.596422396284   -0.892247000000
 K    1.102997476644    6.061554768292    0.000000000000
