10

 C    0.374170339874   -4.994528688123    0.000000000000
 C   -0.725128660126   -3.945668688123    0.000000000000
 N   -2.004736660126   -4.449457688123    0.000000000000
 H   -2.779409660126   -3.798873688123    0.000000000000
 H   -2.191407660126   -5.441508688123    0.000000000000
 O   -0.503536660126   -2.732666688123    0.000000000000
 H    1.344835339874   -4.485383688123    0.000000000000
 H    0.294532339874   -5.635533688123    0.892247000000
 H    0.294532339874   -5.635533688123   -0.892247000000
 K    1.113823266075    6.120815500774    0.000000000000
