10

 C    0.367025463459   -5.033639979963    0.000000000000
 C   -0.732273536541   -3.984779979963    0.000000000000
 N   -2.011881536541   -4.488568979963    0.000000000000
 H   -2.786554536541   -3.837984979963    0.000000000000
 H   -2.198552536541   -5.480619979963    0.000000000000
 O   -0.510681536541   -2.771777979963    0.000000000000
 H    1.337690463459   -4.524494979963    0.000000000000
 H    0.287387463459   -5.674644979963    0.892247000000
 H    0.287387463459   -5.674644979963   -0.892247000000
 K    1.124649055507    6.180076233256    0.000000000000
