10

 C    0.352735710629   -5.111862563641    0.000000000000
 C   -0.746563289371   -4.063002563641    0.000000000000
 N   -2.026171289371   -4.566791563641    0.000000000000
 H   -2.800844289371   -3.916207563641    0.000000000000
 H   -2.212842289371   -5.558842563641    0.000000000000
 O   -0.524971289371   -2.850000563641    0.000000000000
 H    1.323400710629   -4.602717563641    0.000000000000
 H    0.273097710629   -5.752867563641    0.892247000000
 H    0.273097710629   -5.752867563641   -0.892247000000
 K    1.146300634370    6.298597698219    0.000000000000
