10

 C    0.345590834214   -5.150973855480    0.000000000000
 C   -0.753708165786   -4.102113855480    0.000000000000
 N   -2.033316165786   -4.605902855480    0.000000000000
 H   -2.807989165786   -3.955318855480    0.000000000000
 H   -2.219987165786   -5.597953855480    0.000000000000
 O   -0.532116165786   -2.889111855480    0.000000000000
 H    1.316255834214   -4.641828855480    0.000000000000
 H    0.265952834214   -5.791978855480    0.892247000000
 H    0.265952834214   -5.791978855480   -0.892247000000
 K    1.157126423802    6.357858430701    0.000000000000
