10

 C    0.331301081384   -5.229196439159    0.000000000000
 C   -0.767997918616   -4.180336439159    0.000000000000
 N   -2.047605918616   -4.684125439159    0.000000000000
 H   -2.822278918616   -4.033541439159    0.000000000000
 H   -2.234276918616   -5.676176439159    0.000000000000
 O   -0.546405918616   -2.967334439159    0.000000000000
 H    1.301966081384   -4.720051439159    0.000000000000
 H    0.251663081384   -5.870201439159    0.892247000000
 H    0.251663081384   -5.870201439159   -0.892247000000
 K    1.178778002665    6.476379895665    0.000000000000
