10

 C    0.324156204969   -5.268307730998    0.000000000000
 C   -0.775142795031   -4.219447730998    0.000000000000
 N   -2.054750795031   -4.723236730998    0.000000000000
 H   -2.829423795031   -4.072652730998    0.000000000000
 H   -2.241421795031   -5.715287730998    0.000000000000
 O   -0.553550795031   -3.006445730998    0.000000000000
 H    1.294821204969   -4.759162730998    0.000000000000
 H    0.244518204969   -5.909312730998    0.892247000000
 H    0.244518204969   -5.909312730998   -0.892247000000
 K    1.189603792097    6.535640628147    0.000000000000
