10

 C    0.317011328554   -5.307419022837    0.000000000000
 C   -0.782287671446   -4.258559022837    0.000000000000
 N   -2.061895671446   -4.762348022837    0.000000000000
 H   -2.836568671446   -4.111764022837    0.000000000000
 H   -2.248566671446   -5.754399022837    0.000000000000
 O   -0.560695671446   -3.045557022837    0.000000000000
 H    1.287676328554   -4.798274022837    0.000000000000
 H    0.237373328554   -5.948424022837    0.892247000000
 H    0.237373328554   -5.948424022837   -0.892247000000
 K    1.200429581528    6.594901360629    0.000000000000
