9

 C   -0.985455539497   -1.888051066485    0.000000000000
 H   -1.964382539497   -1.396263066485    0.000000000000
 H   -0.878309539497   -2.527860066485    0.888272000000
 H   -0.878309539497   -2.527860066485   -0.888272000000
 C    0.099171460503   -0.842467066485    0.000000000000
 O   -0.061932539497    0.367083933515    0.000000000000
 O    1.341457460503   -1.419475066485    0.000000000000
 H    1.975993460503   -0.680912066485    0.000000000000
 K   -0.207162530006    1.457454627296    0.000000000000
