9

 C   -0.975061479594   -1.966088517754    0.000000000000
 H   -1.953988479594   -1.474300517754    0.000000000000
 H   -0.867915479594   -2.605897517754    0.888272000000
 H   -0.867915479594   -2.605897517754   -0.888272000000
 C    0.109565520406   -0.920504517754    0.000000000000
 O   -0.051538479594    0.289046482246    0.000000000000
 O    1.351851520406   -1.497512517754    0.000000000000
 H    1.986387520406   -0.758949517754    0.000000000000
 K   -0.223173922923    1.577666393078    0.000000000000
