9

 C   -0.959470389740   -2.083144694657    0.000000000000
 H   -1.938397389740   -1.591356694657    0.000000000000
 H   -0.852324389740   -2.722953694657    0.888272000000
 H   -0.852324389740   -2.722953694657   -0.888272000000
 C    0.125156610260   -1.037560694657    0.000000000000
 O   -0.035947389740    0.171990305343    0.000000000000
 O    1.367442610260   -1.614568694657    0.000000000000
 H    2.001978610260   -0.876005694657    0.000000000000
 K   -0.247191012300    1.757984041752    0.000000000000
