9

 C   -0.949076329838   -2.161182145926    0.000000000000
 H   -1.928003329838   -1.669394145926    0.000000000000
 H   -0.841930329838   -2.800991145926    0.888272000000
 H   -0.841930329838   -2.800991145926   -0.888272000000
 C    0.135550670162   -1.115598145926    0.000000000000
 O   -0.025553329838    0.093952854074    0.000000000000
 O    1.377836670162   -1.692606145926    0.000000000000
 H    2.012372670162   -0.954043145926    0.000000000000
 K   -0.263202405217    1.878195807534    0.000000000000
