9

 C   -0.943879299886   -2.200200871560    0.000000000000
 H   -1.922806299886   -1.708412871560    0.000000000000
 H   -0.836733299886   -2.840009871560    0.888272000000
 H   -0.836733299886   -2.840009871560   -0.888272000000
 C    0.140747700114   -1.154616871560    0.000000000000
 O   -0.020356299886    0.054934128440    0.000000000000
 O    1.383033700114   -1.731624871560    0.000000000000
 H    2.017569700114   -0.993061871560    0.000000000000
 K   -0.271208101676    1.938301690425    0.000000000000
