9

 C   -0.933485239984   -2.278238322829    0.000000000000
 H   -1.912412239984   -1.786450322829    0.000000000000
 H   -0.826339239984   -2.918047322829    0.888272000000
 H   -0.826339239984   -2.918047322829   -0.888272000000
 C    0.151141760016   -1.232654322829    0.000000000000
 O   -0.009962239984   -0.023103322829    0.000000000000
 O    1.393427760016   -1.809662322829    0.000000000000
 H    2.027963760016   -1.071099322829    0.000000000000
 K   -0.287219494593    2.058513456207    0.000000000000
