9

 C   -0.928288210032   -2.317257048463    0.000000000000
 H   -1.907215210032   -1.825469048463    0.000000000000
 H   -0.821142210032   -2.957066048463    0.888272000000
 H   -0.821142210032   -2.957066048463   -0.888272000000
 C    0.156338789968   -1.271673048463    0.000000000000
 O   -0.004765210032   -0.062122048463    0.000000000000
 O    1.398624789968   -1.848681048463    0.000000000000
 H    2.033160789968   -1.110118048463    0.000000000000
 K   -0.295225191052    2.118619339099    0.000000000000
