9

 C   -0.917894150130   -2.395294499732    0.000000000000
 H   -1.896821150130   -1.903506499732    0.000000000000
 H   -0.810748150130   -3.035103499732    0.888272000000
 H   -0.810748150130   -3.035103499732   -0.888272000000
 C    0.166732849870   -1.349710499732    0.000000000000
 O    0.005628849870   -0.140159499732    0.000000000000
 O    1.409018849870   -1.926718499732    0.000000000000
 H    2.043554849870   -1.188155499732    0.000000000000
 K   -0.311236583969    2.238831104881    0.000000000000
