9

 C   -0.907500090227   -2.473331951001    0.000000000000
 H   -1.886427090227   -1.981543951001    0.000000000000
 H   -0.800354090227   -3.113140951001    0.888272000000
 H   -0.800354090227   -3.113140951001   -0.888272000000
 C    0.177126909773   -1.427747951001    0.000000000000
 O    0.016022909773   -0.218196951001    0.000000000000
 O    1.419412909773   -2.004755951001    0.000000000000
 H    2.053948909773   -1.266192951001    0.000000000000
 K   -0.327247976886    2.359042870663    0.000000000000
