9

 C   -0.902303060276   -2.512350676635    0.000000000000
 H   -1.881230060276   -2.020562676635    0.000000000000
 H   -0.795157060276   -3.152159676635    0.888272000000
 H   -0.795157060276   -3.152159676635   -0.888272000000
 C    0.182323939724   -1.466766676635    0.000000000000
 O    0.021219939724   -0.257215676635    0.000000000000
 O    1.424609939724   -2.043774676635    0.000000000000
 H    2.059145939724   -1.305211676635    0.000000000000
 K   -0.335253673345    2.419148753555    0.000000000000
