9

 C   -0.886711970422   -2.629406853538    0.000000000000
 H   -1.865638970422   -2.137618853538    0.000000000000
 H   -0.779565970422   -3.269215853538    0.888272000000
 H   -0.779565970422   -3.269215853538   -0.888272000000
 C    0.197915029578   -1.583822853538    0.000000000000
 O    0.036811029578   -0.374271853538    0.000000000000
 O    1.440201029578   -2.160830853538    0.000000000000
 H    2.074737029578   -1.422267853538    0.000000000000
 K   -0.359270762721    2.599466402228    0.000000000000
