9

 C   -0.871120880568   -2.746463030442    0.000000000000
 H   -1.850047880568   -2.254675030442    0.000000000000
 H   -0.763974880568   -3.386272030442    0.888272000000
 H   -0.763974880568   -3.386272030442   -0.888272000000
 C    0.213506119432   -1.700879030442    0.000000000000
 O    0.052402119432   -0.491328030442    0.000000000000
 O    1.455792119432   -2.277887030442    0.000000000000
 H    2.090328119432   -1.539324030442    0.000000000000
 K   -0.383287852097    2.779784050902    0.000000000000
