9

 C   -0.860726820666   -2.824500481710    0.000000000000
 H   -1.839653820666   -2.332712481710    0.000000000000
 H   -0.753580820666   -3.464309481710    0.888272000000
 H   -0.753580820666   -3.464309481710   -0.888272000000
 C    0.223900179334   -1.778916481710    0.000000000000
 O    0.062796179334   -0.569365481710    0.000000000000
 O    1.466186179334   -2.355924481710    0.000000000000
 H    2.100722179334   -1.617361481710    0.000000000000
 K   -0.399299245015    2.899995816684    0.000000000000
