9

 C   -0.850332760763   -2.902537932979    0.000000000000
 H   -1.829259760763   -2.410749932979    0.000000000000
 H   -0.743186760763   -3.542346932979    0.888272000000
 H   -0.743186760763   -3.542346932979   -0.888272000000
 C    0.234294239237   -1.856953932979    0.000000000000
 O    0.073190239237   -0.647402932979    0.000000000000
 O    1.476580239237   -2.433961932979    0.000000000000
 H    2.111116239237   -1.695398932979    0.000000000000
 K   -0.415310637932    3.020207582466    0.000000000000
