9

 C   -0.829544640958   -3.058612835517    0.000000000000
 H   -1.808471640958   -2.566824835517    0.000000000000
 H   -0.722398640958   -3.698421835517    0.888272000000
 H   -0.722398640958   -3.698421835517   -0.888272000000
 C    0.255082359042   -2.013028835517    0.000000000000
 O    0.093978359042   -0.803477835517    0.000000000000
 O    1.497368359042   -2.590036835517    0.000000000000
 H    2.131904359042   -1.851473835517    0.000000000000
 K   -0.447333423767    3.260631114031    0.000000000000
