9

 C   -0.824347611007   -3.097631561151    0.000000000000
 H   -1.803274611007   -2.605843561151    0.000000000000
 H   -0.717201611007   -3.737440561151    0.888272000000
 H   -0.717201611007   -3.737440561151   -0.888272000000
 C    0.260279388993   -2.052047561151    0.000000000000
 O    0.099175388993   -0.842496561151    0.000000000000
 O    1.502565388993   -2.629055561151    0.000000000000
 H    2.137101388993   -1.890492561151    0.000000000000
 K   -0.455339120225    3.320736996922    0.000000000000
