9

 C   -0.813953551104   -3.175669012420    0.000000000000
 H   -1.792880551104   -2.683881012420    0.000000000000
 H   -0.706807551104   -3.815478012420    0.888272000000
 H   -0.706807551104   -3.815478012420   -0.888272000000
 C    0.270673448896   -2.130085012420    0.000000000000
 O    0.109569448896   -0.920534012420    0.000000000000
 O    1.512959448896   -2.707093012420    0.000000000000
 H    2.147495448896   -1.968530012420    0.000000000000
 K   -0.471350513143    3.440948762705    0.000000000000
