9

 C   -0.803559491202   -3.253706463688    0.000000000000
 H   -1.782486491202   -2.761918463688    0.000000000000
 H   -0.696413491202   -3.893515463688    0.888272000000
 H   -0.696413491202   -3.893515463688   -0.888272000000
 C    0.281067508798   -2.208122463688    0.000000000000
 O    0.119963508798   -0.998571463688    0.000000000000
 O    1.523353508798   -2.785130463688    0.000000000000
 H    2.157889508798   -2.046567463688    0.000000000000
 K   -0.487361906060    3.561160528487    0.000000000000
