9

 C   -0.787968401348   -3.370762640592    0.000000000000
 H   -1.766895401348   -2.878974640592    0.000000000000
 H   -0.680822401348   -4.010571640592    0.888272000000
 H   -0.680822401348   -4.010571640592   -0.888272000000
 C    0.296658598652   -2.325178640592    0.000000000000
 O    0.135554598652   -1.115627640592    0.000000000000
 O    1.538944598652   -2.902186640592    0.000000000000
 H    2.173480598652   -2.163623640592    0.000000000000
 K   -0.511378995436    3.741478177160    0.000000000000
