9

 C   -0.756786221640   -3.604874994398    0.000000000000
 H   -1.735713221640   -3.113086994398    0.000000000000
 H   -0.649640221640   -4.244683994398    0.888272000000
 H   -0.649640221640   -4.244683994398   -0.888272000000
 C    0.327840778360   -2.559290994398    0.000000000000
 O    0.166736778360   -1.349739994398    0.000000000000
 O    1.570126778360   -3.136298994398    0.000000000000
 H    2.204662778360   -2.397735994398    0.000000000000
 K   -0.559413174188    4.102113474507    0.000000000000
