9

 C   -0.746392161738   -3.682912445667    0.000000000000
 H   -1.725319161738   -3.191124445667    0.000000000000
 H   -0.639246161738   -4.322721445667    0.888272000000
 H   -0.639246161738   -4.322721445667   -0.888272000000
 C    0.338234838262   -2.637328445667    0.000000000000
 O    0.177130838262   -1.427777445667    0.000000000000
 O    1.580520838262   -3.214336445667    0.000000000000
 H    2.215056838262   -2.475773445667    0.000000000000
 K   -0.575424567106    4.222325240290    0.000000000000
