9

 C   -0.730801071884   -3.799968622570    0.000000000000
 H   -1.709728071884   -3.308180622570    0.000000000000
 H   -0.623655071884   -4.439777622570    0.888272000000
 H   -0.623655071884   -4.439777622570   -0.888272000000
 C    0.353825928116   -2.754384622570    0.000000000000
 O    0.192721928116   -1.544833622570    0.000000000000
 O    1.596111928116   -3.331392622570    0.000000000000
 H    2.230647928116   -2.592829622570    0.000000000000
 K   -0.599441656482    4.402642888963    0.000000000000
