9

 C   -0.725604041933   -3.838987348204    0.000000000000
 H   -1.704531041933   -3.347199348204    0.000000000000
 H   -0.618458041933   -4.478796348204    0.888272000000
 H   -0.618458041933   -4.478796348204   -0.888272000000
 C    0.359022958067   -2.793403348204    0.000000000000
 O    0.197918958067   -1.583852348204    0.000000000000
 O    1.601308958067   -3.370411348204    0.000000000000
 H    2.235844958067   -2.631848348204    0.000000000000
 K   -0.607447352940    4.462748771854    0.000000000000
