9

 C   -0.694421862225   -4.073099702010    0.000000000000
 H   -1.673348862225   -3.581311702010    0.000000000000
 H   -0.587275862225   -4.712908702010    0.888272000000
 H   -0.587275862225   -4.712908702010   -0.888272000000
 C    0.390205137775   -3.027515702010    0.000000000000
 O    0.229101137775   -1.817964702010    0.000000000000
 O    1.632491137775   -3.604523702010    0.000000000000
 H    2.267027137775   -2.865960702010    0.000000000000
 K   -0.655481531693    4.823384069202    0.000000000000
