9

 C   -0.652845622615   -4.385249507085    0.000000000000
 H   -1.631772622615   -3.893461507085    0.000000000000
 H   -0.545699622615   -5.025058507085    0.888272000000
 H   -0.545699622615   -5.025058507085   -0.888272000000
 C    0.431781377385   -3.339665507085    0.000000000000
 O    0.270677377385   -2.130114507085    0.000000000000
 O    1.674067377385   -3.916673507085    0.000000000000
 H    2.308603377385   -3.178110507085    0.000000000000
 K   -0.719527103362    5.304231132331    0.000000000000
