9

 C   -0.647648592663   -4.424268232720    0.000000000000
 H   -1.626575592663   -3.932480232720    0.000000000000
 H   -0.540502592663   -5.064077232720    0.888272000000
 H   -0.540502592663   -5.064077232720   -0.888272000000
 C    0.436978407337   -3.378684232720    0.000000000000
 O    0.275874407337   -2.169133232720    0.000000000000
 O    1.679264407337   -3.955692232720    0.000000000000
 H    2.313800407337   -3.217129232720    0.000000000000
 K   -0.727532799821    5.364337015222    0.000000000000
