9

 C   -0.621663442907   -4.619361860892    0.000000000000
 H   -1.600590442907   -4.127573860892    0.000000000000
 H   -0.514517442907   -5.259170860892    0.888272000000
 H   -0.514517442907   -5.259170860892   -0.888272000000
 C    0.462963557093   -3.573777860892    0.000000000000
 O    0.301859557093   -2.364226860892    0.000000000000
 O    1.705249557093   -4.150785860892    0.000000000000
 H    2.339785557093   -3.412222860892    0.000000000000
 K   -0.767561282114    5.664866429678    0.000000000000
