9

 C   -0.611269383004   -4.697399312160    0.000000000000
 H   -1.590196383004   -4.205611312160    0.000000000000
 H   -0.504123383004   -5.337208312160    0.888272000000
 H   -0.504123383004   -5.337208312160   -0.888272000000
 C    0.473357616996   -3.651815312160    0.000000000000
 O    0.312253616996   -2.442264312160    0.000000000000
 O    1.715643616996   -4.228823312160    0.000000000000
 H    2.350179616996   -3.490260312160    0.000000000000
 K   -0.783572675032    5.785078195460    0.000000000000
