9

 C   -0.606072353053   -4.736418037795    0.000000000000
 H   -1.584999353053   -4.244630037795    0.000000000000
 H   -0.498926353053   -5.376227037795    0.888272000000
 H   -0.498926353053   -5.376227037795   -0.888272000000
 C    0.478554646947   -3.690834037795    0.000000000000
 O    0.317450646947   -2.481283037795    0.000000000000
 O    1.720840646947   -4.267842037795    0.000000000000
 H    2.355376646947   -3.529279037795    0.000000000000
 K   -0.791578371490    5.845184078352    0.000000000000
