9

 C   -0.600875323102   -4.775436763429    0.000000000000
 H   -1.579802323102   -4.283648763429    0.000000000000
 H   -0.493729323102   -5.415245763429    0.888272000000
 H   -0.493729323102   -5.415245763429   -0.888272000000
 C    0.483751676898   -3.729852763429    0.000000000000
 O    0.322647676898   -2.520301763429    0.000000000000
 O    1.726037676898   -4.306860763429    0.000000000000
 H    2.360573676898   -3.568297763429    0.000000000000
 K   -0.799584067949    5.905289961243    0.000000000000
