9

 C   -0.595678293151   -4.814455489063    0.000000000000
 H   -1.574605293151   -4.322667489063    0.000000000000
 H   -0.488532293151   -5.454264489063    0.888272000000
 H   -0.488532293151   -5.454264489063   -0.888272000000
 C    0.488948706849   -3.768871489063    0.000000000000
 O    0.327844706849   -2.559320489063    0.000000000000
 O    1.731234706849   -4.345879489063    0.000000000000
 H    2.365770706849   -3.607316489063    0.000000000000
 K   -0.807589764408    5.965395844134    0.000000000000
