9

 C   -0.580087203297   -4.931511665967    0.000000000000
 H   -1.559014203297   -4.439723665967    0.000000000000
 H   -0.472941203297   -5.571320665967    0.888272000000
 H   -0.472941203297   -5.571320665967   -0.888272000000
 C    0.504539796703   -3.885927665967    0.000000000000
 O    0.343435796703   -2.676376665967    0.000000000000
 O    1.746825796703   -4.462935665967    0.000000000000
 H    2.381361796703   -3.724372665967    0.000000000000
 K   -0.831606853784    6.145713492807    0.000000000000
