9

 C   -0.574890173345   -4.970530391601    0.000000000000
 H   -1.553817173345   -4.478742391601    0.000000000000
 H   -0.467744173345   -5.610339391601    0.888272000000
 H   -0.467744173345   -5.610339391601   -0.888272000000
 C    0.509736826655   -3.924946391601    0.000000000000
 O    0.348632826655   -2.715395391601    0.000000000000
 O    1.752022826655   -4.501954391601    0.000000000000
 H    2.386558826655   -3.763391391601    0.000000000000
 K   -0.839612550242    6.205819375699    0.000000000000
