9

 C   -0.564496113443   -5.048567842870    0.000000000000
 H   -1.543423113443   -4.556779842870    0.000000000000
 H   -0.457350113443   -5.688376842870    0.888272000000
 H   -0.457350113443   -5.688376842870   -0.888272000000
 C    0.520130886557   -4.002983842870    0.000000000000
 O    0.359026886557   -2.793432842870    0.000000000000
 O    1.762416886557   -4.579991842870    0.000000000000
 H    2.396952886557   -3.841428842870    0.000000000000
 K   -0.855623943160    6.326031141481    0.000000000000
