9

 C   -0.559299083492   -5.087586568504    0.000000000000
 H   -1.538226083492   -4.595798568504    0.000000000000
 H   -0.452153083492   -5.727395568504    0.888272000000
 H   -0.452153083492   -5.727395568504   -0.888272000000
 C    0.525327916508   -4.042002568504    0.000000000000
 O    0.364223916508   -2.832451568504    0.000000000000
 O    1.767613916508   -4.619010568504    0.000000000000
 H    2.402149916508   -3.880447568504    0.000000000000
 K   -0.863629639618    6.386137024372    0.000000000000
