9

 C   -0.543707993638   -5.204642745407    0.000000000000
 H   -1.522634993638   -4.712854745407    0.000000000000
 H   -0.436561993638   -5.844451745407    0.888272000000
 H   -0.436561993638   -5.844451745407   -0.888272000000
 C    0.540919006362   -4.159058745407    0.000000000000
 O    0.379815006362   -2.949507745407    0.000000000000
 O    1.783205006362   -4.736066745407    0.000000000000
 H    2.417741006362   -3.997503745407    0.000000000000
 K   -0.887646728994    6.566454673046    0.000000000000
