9

 C   -0.538510963686   -5.243661471042    0.000000000000
 H   -1.517437963686   -4.751873471042    0.000000000000
 H   -0.431364963686   -5.883470471042    0.888272000000
 H   -0.431364963686   -5.883470471042   -0.888272000000
 C    0.546116036314   -4.198077471042    0.000000000000
 O    0.385012036314   -2.988526471042    0.000000000000
 O    1.788402036314   -4.775085471042    0.000000000000
 H    2.422938036314   -4.036522471042    0.000000000000
 K   -0.895652425453    6.626560555937    0.000000000000
