9

 C   -0.533313933735   -5.282680196676    0.000000000000
 H   -1.512240933735   -4.790892196676    0.000000000000
 H   -0.426167933735   -5.922489196676    0.888272000000
 H   -0.426167933735   -5.922489196676   -0.888272000000
 C    0.551313066265   -4.237096196676    0.000000000000
 O    0.390209066265   -3.027545196676    0.000000000000
 O    1.793599066265   -4.814104196676    0.000000000000
 H    2.428135066265   -4.075541196676    0.000000000000
 K   -0.903658121912    6.686666438828    0.000000000000
