8

 C    0.082356971836   -2.419480793640    0.000000000000
 H    1.117856971836   -2.795568793640    0.000000000000
 H   -0.450843028164   -2.800183793640    0.888337000000
 H   -0.450843028164   -2.800183793640   -0.888337000000
 C    0.040590971836   -0.863396793640    0.000000000000
 O   -1.126605028164   -0.357173793640    0.000000000000
 O    1.164661971836   -0.267978793640    0.000000000000
CS   -0.017320247700    0.435312677585    0.000000000000
