8

 C    0.113206230677   -3.111302256854    0.000000000000
 H    1.148706230677   -3.487390256854    0.000000000000
 H   -0.419993769323   -3.492005256854    0.888337000000
 H   -0.419993769323   -3.492005256854   -0.888337000000
 C    0.071440230677   -1.555218256854    0.000000000000
 O   -1.095755769323   -1.048995256854    0.000000000000
 O    1.195511230677   -0.959800256854    0.000000000000
CS   -0.031018080811    0.742498499930    0.000000000000
