8

 C    0.125545934213   -3.388030842140    0.000000000000
 H    1.161045934213   -3.764118842140    0.000000000000
 H   -0.407654065787   -3.768733842140    0.888337000000
 H   -0.407654065787   -3.768733842140   -0.888337000000
 C    0.083779934213   -1.831946842140    0.000000000000
 O   -1.083416065787   -1.325723842140    0.000000000000
 O    1.207850934213   -1.236528842140    0.000000000000
CS   -0.036497214055    0.865372828868    0.000000000000
