8

 C    0.156395193053   -4.079852305354    0.000000000000
 H    1.191895193053   -4.455940305354    0.000000000000
 H   -0.376804806947   -4.460555305354    0.888337000000
 H   -0.376804806947   -4.460555305354   -0.888337000000
 C    0.114629193053   -2.523768305354    0.000000000000
 O   -1.052566806947   -2.017545305354    0.000000000000
 O    1.238700193053   -1.928350305354    0.000000000000
CS   -0.050195047166    1.172558651212    0.000000000000
