8

 C    0.202669081313   -5.117584500175    0.000000000000
 H    1.238169081313   -5.493672500175    0.000000000000
 H   -0.330530918687   -5.498287500175    0.888337000000
 H   -0.330530918687   -5.498287500175   -0.888337000000
 C    0.160903081313   -3.561500500175    0.000000000000
 O   -1.006292918687   -3.055277500175    0.000000000000
 O    1.284974081313   -2.966082500175    0.000000000000
CS   -0.070741796832    1.633337384729    0.000000000000
