8

 C    0.205754007197   -5.186766646496    0.000000000000
 H    1.241254007197   -5.562854646496    0.000000000000
 H   -0.327445992803   -5.567469646496    0.888337000000
 H   -0.327445992803   -5.567469646496   -0.888337000000
 C    0.163988007197   -3.630682646496    0.000000000000
 O   -1.003207992803   -3.124459646496    0.000000000000
 O    1.288059007197   -3.035264646496    0.000000000000
CS   -0.072111580144    1.664055966963    0.000000000000
