8

 C    0.215008784850   -5.394313085460    0.000000000000
 H    1.250508784850   -5.770401085460    0.000000000000
 H   -0.318191215150   -5.775016085460    0.888337000000
 H   -0.318191215150   -5.775016085460   -0.888337000000
 C    0.173242784850   -3.838229085460    0.000000000000
 O   -0.993953215150   -3.332006085460    0.000000000000
 O    1.297313784850   -3.242811085460    0.000000000000
CS   -0.076220930077    1.756211713667    0.000000000000
