8

 C    0.224263562502   -5.601859524424    0.000000000000
 H    1.259763562502   -5.977947524424    0.000000000000
 H   -0.308936437498   -5.982562524424    0.888337000000
 H   -0.308936437498   -5.982562524424   -0.888337000000
 C    0.182497562502   -4.045775524424    0.000000000000
 O   -0.984698437498   -3.539552524424    0.000000000000
 O    1.306568562502   -3.450357524424    0.000000000000
CS   -0.080330280010    1.848367460370    0.000000000000
