8

 C    0.233518340154   -5.809405963389    0.000000000000
 H    1.269018340154   -6.185493963389    0.000000000000
 H   -0.299681659846   -6.190108963389    0.888337000000
 H   -0.299681659846   -6.190108963389   -0.888337000000
 C    0.191752340154   -4.253321963389    0.000000000000
 O   -0.975443659846   -3.747098963389    0.000000000000
 O    1.315823340154   -3.657903963389    0.000000000000
CS   -0.084439629943    1.940523207073    0.000000000000
