8

 C    0.252027895458   -6.224498841317    0.000000000000
 H    1.287527895458   -6.600586841317    0.000000000000
 H   -0.281172104542   -6.605201841317    0.888337000000
 H   -0.281172104542   -6.605201841317   -0.888337000000
 C    0.210261895458   -4.668414841317    0.000000000000
 O   -0.956934104542   -4.162191841317    0.000000000000
 O    1.334332895458   -4.072996841317    0.000000000000
CS   -0.092658329810    2.124834700480    0.000000000000
