8

 C    0.267452524878   -6.570409572924    0.000000000000
 H    1.302952524878   -6.946497572924    0.000000000000
 H   -0.265747475122   -6.951112572924    0.888337000000
 H   -0.265747475122   -6.951112572924   -0.888337000000
 C    0.225686524878   -5.014325572924    0.000000000000
 O   -0.941509475122   -4.508102572924    0.000000000000
 O    1.349757524878   -4.418907572924    0.000000000000
CS   -0.099507246365    2.278427611652    0.000000000000
