8

 C    0.273622376646   -6.708773865567    0.000000000000
 H    1.309122376646   -7.084861865567    0.000000000000
 H   -0.259577623354   -7.089476865567    0.888337000000
 H   -0.259577623354   -7.089476865567   -0.888337000000
 C    0.231856376646   -5.152689865567    0.000000000000
 O   -0.935339623354   -4.646466865567    0.000000000000
 O    1.355927376646   -4.557271865567    0.000000000000
CS   -0.102246812987    2.339864776121    0.000000000000
