8

 C    0.285962080182   -6.985502450852    0.000000000000
 H    1.321462080182   -7.361590450852    0.000000000000
 H   -0.247237919818   -7.366205450852    0.888337000000
 H   -0.247237919818   -7.366205450852   -0.888337000000
 C    0.244196080182   -5.429418450852    0.000000000000
 O   -0.922999919818   -4.923195450852    0.000000000000
 O    1.368267080182   -4.834000450852    0.000000000000
CS   -0.107725946232    2.462739105059    0.000000000000
