8

 C    0.292131931950   -7.123866743495    0.000000000000
 H    1.327631931950   -7.499954743495    0.000000000000
 H   -0.241068068050   -7.504569743495    0.888337000000
 H   -0.241068068050   -7.504569743495   -0.888337000000
 C    0.250365931950   -5.567782743495    0.000000000000
 O   -0.916830068050   -5.061559743495    0.000000000000
 O    1.374436931950   -4.972364743495    0.000000000000
CS   -0.110465512854    2.524176269528    0.000000000000
