8

 C    0.295216857834   -7.193048889816    0.000000000000
 H    1.330716857834   -7.569136889816    0.000000000000
 H   -0.237983142166   -7.573751889816    0.888337000000
 H   -0.237983142166   -7.573751889816   -0.888337000000
 C    0.253450857834   -5.636964889816    0.000000000000
 O   -0.913745142166   -5.130741889816    0.000000000000
 O    1.377521857834   -5.041546889816    0.000000000000
CS   -0.111835296165    2.554894851762    0.000000000000
