8

 C    0.298301783718   -7.262231036138    0.000000000000
 H    1.333801783718   -7.638319036138    0.000000000000
 H   -0.234898216282   -7.642934036138    0.888337000000
 H   -0.234898216282   -7.642934036138   -0.888337000000
 C    0.256535783718   -5.706147036138    0.000000000000
 O   -0.910660216282   -5.199924036138    0.000000000000
 O    1.380606783718   -5.110729036138    0.000000000000
CS   -0.113205079476    2.585613433997    0.000000000000
