8

 C    0.304471635486   -7.400595328781    0.000000000000
 H    1.339971635486   -7.776683328781    0.000000000000
 H   -0.228728364514   -7.781298328781    0.888337000000
 H   -0.228728364514   -7.781298328781   -0.888337000000
 C    0.262705635486   -5.844511328781    0.000000000000
 O   -0.904490364514   -5.338288328781    0.000000000000
 O    1.386776635486   -5.249093328781    0.000000000000
CS   -0.115944646098    2.647050598465    0.000000000000
