8

 C    0.307556561371   -7.469777475102    0.000000000000
 H    1.343056561371   -7.845865475102    0.000000000000
 H   -0.225643438629   -7.850480475102    0.888337000000
 H   -0.225643438629   -7.850480475102   -0.888337000000
 C    0.265790561371   -5.913693475102    0.000000000000
 O   -0.901405438629   -5.407470475102    0.000000000000
 O    1.389861561371   -5.318275475102    0.000000000000
CS   -0.117314429409    2.677769180700    0.000000000000
