8

 C    0.313726413139   -7.608141767745    0.000000000000
 H    1.349226413139   -7.984229767745    0.000000000000
 H   -0.219473586861   -7.988844767745    0.888337000000
 H   -0.219473586861   -7.988844767745   -0.888337000000
 C    0.271960413139   -6.052057767745    0.000000000000
 O   -0.895235586861   -5.545834767745    0.000000000000
 O    1.396031413139   -5.456639767745    0.000000000000
CS   -0.120053996031    2.739206345169    0.000000000000
