8

 C    0.338405820211   -8.161598938316    0.000000000000
 H    1.373905820211   -8.537686938316    0.000000000000
 H   -0.194794179789   -8.542301938316    0.888337000000
 H   -0.194794179789   -8.542301938316   -0.888337000000
 C    0.296639820211   -6.605514938316    0.000000000000
 O   -0.870556179789   -6.099291938316    0.000000000000
 O    1.420710820211   -6.010096938316    0.000000000000
CS   -0.131012262520    2.984955003044    0.000000000000
