14

 C   -1.064820407040    0.637259567193    0.000000000000
 N   -0.436066407040    1.826897567193    0.000000000000
 H   -0.955413407040    2.695110567193    0.000000000000
 H    0.573922592960    1.886076567193    0.000000000000
 N   -2.407040407040    0.596367567193    0.000000000000
 H   -2.955082407040    1.447101567193    0.000000000000
 H   -2.904644407040   -0.284055432807    0.000000000000
 N   -0.364097407040   -0.500438432807    0.000000000000
 H    0.647189592960   -0.432037432807    0.000000000000
 C   -0.979547407040   -1.833925432807    0.000000000000
 H   -0.172141407040   -2.574136432807    0.000000000000
 H   -1.587416407040   -1.980915432807    0.905528000000
 H   -1.587416407040   -1.980915432807   -0.905528000000
CL    2.243542229573   -0.324064012109    0.000000000000
