14

 C   -1.160809736599    0.630767081746    0.000000000000
 N   -0.532055736599    1.820405081746    0.000000000000
 H   -1.051402736599    2.688618081746    0.000000000000
 H    0.477933263401    1.879584081746    0.000000000000
 N   -2.503029736599    0.589875081746    0.000000000000
 H   -3.051071736599    1.440609081746    0.000000000000
 H   -3.000633736599   -0.290547918254    0.000000000000
 N   -0.460086736599   -0.506930918254    0.000000000000
 H    0.551200263401   -0.438529918254    0.000000000000
 C   -1.075536736599   -1.840417918254    0.000000000000
 H   -0.268130736599   -2.580628918254    0.000000000000
 H   -1.683405736599   -1.987407918254    0.905528000000
 H   -1.683405736599   -1.987407918254   -0.905528000000
CL    2.446869019379   -0.310311481176    0.000000000000
