14

 C   -3.752521634695    0.455469974652    0.000000000000
 N   -3.123767634695    1.645107974652    0.000000000000
 H   -3.643114634695    2.513320974652    0.000000000000
 H   -2.113778634695    1.704286974652    0.000000000000
 N   -5.094741634695    0.414577974652    0.000000000000
 H   -5.642783634695    1.265311974652    0.000000000000
 H   -5.592345634695   -0.465845025348    0.000000000000
 N   -3.051798634695   -0.682228025348    0.000000000000
 H   -2.040511634695   -0.613827025348    0.000000000000
 C   -3.667248634695   -2.015715025348    0.000000000000
 H   -2.859842634695   -2.755926025348    0.000000000000
 H   -4.275117634695   -2.162705025348    0.905528000000
 H   -4.275117634695   -2.162705025348   -0.905528000000
CL    7.936692344139    0.061006854012    0.000000000000
