14

 C   -1.224802622972    0.626438758114    0.000000000000
 N   -0.596048622972    1.816076758114    0.000000000000
 H   -1.115395622972    2.684289758114    0.000000000000
 H    0.413940377028    1.875255758114    0.000000000000
 N   -2.567022622972    0.585546758114    0.000000000000
 H   -3.115064622972    1.436280758114    0.000000000000
 H   -3.064626622972   -0.294876241886    0.000000000000
 N   -0.524079622972   -0.511259241886    0.000000000000
 H    0.487207377028   -0.442858241886    0.000000000000
 C   -1.139529622972   -1.844746241886    0.000000000000
 H   -0.332123622972   -2.584957241886    0.000000000000
 H   -1.747398622972   -1.991736241886    0.905528000000
 H   -1.747398622972   -1.991736241886   -0.905528000000
CL    2.582420212583   -0.301143127221    0.000000000000
