14

 C   -1.256799066159    0.624274596298    0.000000000000
 N   -0.628045066159    1.813912596298    0.000000000000
 H   -1.147392066159    2.682125596298    0.000000000000
 H    0.381943933841    1.873091596298    0.000000000000
 N   -2.599019066159    0.583382596298    0.000000000000
 H   -3.147061066159    1.434116596298    0.000000000000
 H   -3.096623066159   -0.297040403702    0.000000000000
 N   -0.556076066159   -0.513423403702    0.000000000000
 H    0.455210933841   -0.445022403702    0.000000000000
 C   -1.171526066159   -1.846910403702    0.000000000000
 H   -0.364120066159   -2.587121403702    0.000000000000
 H   -1.779395066159   -1.993900403702    0.905528000000
 H   -1.779395066159   -1.993900403702   -0.905528000000
CL    2.650195809185   -0.296558950243    0.000000000000
