14

 C   -1.288795509345    0.622110434482    0.000000000000
 N   -0.660041509345    1.811748434482    0.000000000000
 H   -1.179388509345    2.679961434482    0.000000000000
 H    0.349947490655    1.870927434482    0.000000000000
 N   -2.631015509345    0.581218434482    0.000000000000
 H   -3.179057509345    1.431952434482    0.000000000000
 H   -3.128619509345   -0.299204565518    0.000000000000
 N   -0.588072509345   -0.515587565518    0.000000000000
 H    0.423214490655   -0.447186565518    0.000000000000
 C   -1.203522509345   -1.849074565518    0.000000000000
 H   -0.396116509345   -2.589285565518    0.000000000000
 H   -1.811391509345   -1.996064565518    0.905528000000
 H   -1.811391509345   -1.996064565518   -0.905528000000
CL    2.717971405787   -0.291974773266    0.000000000000
