14

 C   -1.416781282090    0.613453787218    0.000000000000
 N   -0.788027282090    1.803091787218    0.000000000000
 H   -1.307374282090    2.671304787218    0.000000000000
 H    0.221961717910    1.862270787218    0.000000000000
 N   -2.759001282090    0.572561787218    0.000000000000
 H   -3.307043282090    1.423295787218    0.000000000000
 H   -3.256605282090   -0.307861212782    0.000000000000
 N   -0.716058282090   -0.524244212782    0.000000000000
 H    0.295228717910   -0.455843212782    0.000000000000
 C   -1.331508282090   -1.857731212782    0.000000000000
 H   -0.524102282090   -2.597942212782    0.000000000000
 H   -1.939377282090   -2.004721212782    0.905528000000
 H   -1.939377282090   -2.004721212782   -0.905528000000
CL    2.989073792195   -0.273638065355    0.000000000000
