14

 C   -1.448777725277    0.611289625402    0.000000000000
 N   -0.820023725277    1.800927625402    0.000000000000
 H   -1.339370725277    2.669140625402    0.000000000000
 H    0.189965274723    1.860106625402    0.000000000000
 N   -2.790997725277    0.570397625402    0.000000000000
 H   -3.339039725277    1.421131625402    0.000000000000
 H   -3.288601725277   -0.310025374598    0.000000000000
 N   -0.748054725277   -0.526408374598    0.000000000000
 H    0.263232274723   -0.458007374598    0.000000000000
 C   -1.363504725277   -1.859895374598    0.000000000000
 H   -0.556098725277   -2.600106374598    0.000000000000
 H   -1.971373725277   -2.006885374598    0.905528000000
 H   -1.971373725277   -2.006885374598   -0.905528000000
CL    3.056849388797   -0.269053888377    0.000000000000
