14

 C   -1.544767054836    0.604797139954    0.000000000000
 N   -0.916013054836    1.794435139954    0.000000000000
 H   -1.435360054836    2.662648139954    0.000000000000
 H    0.093975945164    1.853614139954    0.000000000000
 N   -2.886987054836    0.563905139954    0.000000000000
 H   -3.435029054836    1.414639139954    0.000000000000
 H   -3.384591054836   -0.316517860046    0.000000000000
 N   -0.844044054836   -0.532900860046    0.000000000000
 H    0.167242945164   -0.464499860046    0.000000000000
 C   -1.459494054836   -1.866387860046    0.000000000000
 H   -0.652088054836   -2.606598860046    0.000000000000
 H   -2.067363054836   -2.013377860046    0.905528000000
 H   -2.067363054836   -2.013377860046   -0.905528000000
CL    3.260176178603   -0.255301357445    0.000000000000
