14

 C   -1.704749270768    0.593976330874    0.000000000000
 N   -1.075995270768    1.783614330874    0.000000000000
 H   -1.595342270768    2.651827330874    0.000000000000
 H   -0.066006270768    1.842793330874    0.000000000000
 N   -3.046969270768    0.553084330874    0.000000000000
 H   -3.595011270768    1.403818330874    0.000000000000
 H   -3.544573270768   -0.327338669126    0.000000000000
 N   -1.004026270768   -0.543721669126    0.000000000000
 H    0.007260729232   -0.475320669126    0.000000000000
 C   -1.619476270768   -1.877208669126    0.000000000000
 H   -0.812070270768   -2.617419669126    0.000000000000
 H   -2.227345270768   -2.024198669126    0.905528000000
 H   -2.227345270768   -2.024198669126   -0.905528000000
CL    3.599054161613   -0.232380472556    0.000000000000
