14

 C   -1.736745713954    0.591812169058    0.000000000000
 N   -1.107991713954    1.781450169058    0.000000000000
 H   -1.627338713954    2.649663169058    0.000000000000
 H   -0.098002713954    1.840629169058    0.000000000000
 N   -3.078965713954    0.550920169058    0.000000000000
 H   -3.627007713954    1.401654169058    0.000000000000
 H   -3.576569713954   -0.329502830942    0.000000000000
 N   -1.036022713954   -0.545885830942    0.000000000000
 H   -0.024735713954   -0.477484830942    0.000000000000
 C   -1.651472713954   -1.879372830942    0.000000000000
 H   -0.844066713954   -2.619583830942    0.000000000000
 H   -2.259341713954   -2.026362830942    0.905528000000
 H   -2.259341713954   -2.026362830942   -0.905528000000
CL    3.666829758215   -0.227796295579    0.000000000000
