14

 C   -1.800738600327    0.587483845426    0.000000000000
 N   -1.171984600327    1.777121845426    0.000000000000
 H   -1.691331600327    2.645334845426    0.000000000000
 H   -0.161995600327    1.836300845426    0.000000000000
 N   -3.142958600327    0.546591845426    0.000000000000
 H   -3.691000600327    1.397325845426    0.000000000000
 H   -3.640562600327   -0.333831154574    0.000000000000
 N   -1.100015600327   -0.550214154574    0.000000000000
 H   -0.088728600327   -0.481813154574    0.000000000000
 C   -1.715465600327   -1.883701154574    0.000000000000
 H   -0.908059600327   -2.623912154574    0.000000000000
 H   -2.323334600327   -2.030691154574    0.905528000000
 H   -2.323334600327   -2.030691154574   -0.905528000000
CL    3.802380951419   -0.218627941624    0.000000000000
