14

 C   -1.928724373072    0.578827198162    0.000000000000
 N   -1.299970373072    1.768465198162    0.000000000000
 H   -1.819317373072    2.636678198162    0.000000000000
 H   -0.289981373072    1.827644198162    0.000000000000
 N   -3.270944373072    0.537935198162    0.000000000000
 H   -3.818986373072    1.388669198162    0.000000000000
 H   -3.768548373072   -0.342487801838    0.000000000000
 N   -1.228001373072   -0.558870801838    0.000000000000
 H   -0.216714373072   -0.490469801838    0.000000000000
 C   -1.843451373072   -1.892357801838    0.000000000000
 H   -1.036045373072   -2.632568801838    0.000000000000
 H   -2.451320373072   -2.039347801838    0.905528000000
 H   -2.451320373072   -2.039347801838   -0.905528000000
CL    4.073483337826   -0.200291233713    0.000000000000
