14

 C   -2.024713702631    0.572334712714    0.000000000000
 N   -1.395959702631    1.761972712714    0.000000000000
 H   -1.915306702631    2.630185712714    0.000000000000
 H   -0.385970702631    1.821151712714    0.000000000000
 N   -3.366933702631    0.531442712714    0.000000000000
 H   -3.914975702631    1.382176712714    0.000000000000
 H   -3.864537702631   -0.348980287286    0.000000000000
 N   -1.323990702631   -0.565363287286    0.000000000000
 H   -0.312703702631   -0.496962287286    0.000000000000
 C   -1.939440702631   -1.898850287286    0.000000000000
 H   -1.132034702631   -2.639061287286    0.000000000000
 H   -2.547309702631   -2.045840287286    0.905528000000
 H   -2.547309702631   -2.045840287286   -0.905528000000
CL    4.276810127632   -0.186538702780    0.000000000000
