14

 C   -2.056710145818    0.570170550898    0.000000000000
 N   -1.427956145818    1.759808550898    0.000000000000
 H   -1.947303145818    2.628021550898    0.000000000000
 H   -0.417967145818    1.818987550898    0.000000000000
 N   -3.398930145818    0.529278550898    0.000000000000
 H   -3.946972145818    1.380012550898    0.000000000000
 H   -3.896534145818   -0.351144449102    0.000000000000
 N   -1.355987145818   -0.567527449102    0.000000000000
 H   -0.344700145818   -0.499126449102    0.000000000000
 C   -1.971437145818   -1.901014449102    0.000000000000
 H   -1.164031145818   -2.641225449102    0.000000000000
 H   -2.579306145818   -2.048004449102    0.905528000000
 H   -2.579306145818   -2.048004449102   -0.905528000000
CL    4.344585724234   -0.181954525803    0.000000000000
