14

 C   -2.088706589004    0.568006389082    0.000000000000
 N   -1.459952589004    1.757644389082    0.000000000000
 H   -1.979299589004    2.625857389082    0.000000000000
 H   -0.449963589004    1.816823389082    0.000000000000
 N   -3.430926589004    0.527114389082    0.000000000000
 H   -3.978968589004    1.377848389082    0.000000000000
 H   -3.928530589004   -0.353308610918    0.000000000000
 N   -1.387983589004   -0.569691610918    0.000000000000
 H   -0.376696589004   -0.501290610918    0.000000000000
 C   -2.003433589004   -1.903178610918    0.000000000000
 H   -1.196027589004   -2.643389610918    0.000000000000
 H   -2.611302589004   -2.050168610918    0.905528000000
 H   -2.611302589004   -2.050168610918   -0.905528000000
CL    4.412361320836   -0.177370348825    0.000000000000
