14

 C   -2.152699475377    0.563678065450    0.000000000000
 N   -1.523945475377    1.753316065450    0.000000000000
 H   -2.043292475377    2.621529065450    0.000000000000
 H   -0.513956475377    1.812495065450    0.000000000000
 N   -3.494919475377    0.522786065450    0.000000000000
 H   -4.042961475377    1.373520065450    0.000000000000
 H   -3.992523475377   -0.357636934550    0.000000000000
 N   -1.451976475377   -0.574019934550    0.000000000000
 H   -0.440689475377   -0.505618934550    0.000000000000
 C   -2.067426475377   -1.907506934550    0.000000000000
 H   -1.260020475377   -2.647717934550    0.000000000000
 H   -2.675295475377   -2.054496934550    0.905528000000
 H   -2.675295475377   -2.054496934550   -0.905528000000
CL    4.547912514040   -0.168201994870    0.000000000000
