14

 C   -2.184695918563    0.561513903634    0.000000000000
 N   -1.555941918563    1.751151903634    0.000000000000
 H   -2.075288918563    2.619364903634    0.000000000000
 H   -0.545952918563    1.810330903634    0.000000000000
 N   -3.526915918563    0.520621903634    0.000000000000
 H   -4.074957918563    1.371355903634    0.000000000000
 H   -4.024519918563   -0.359801096366    0.000000000000
 N   -1.483972918563   -0.576184096366    0.000000000000
 H   -0.472685918563   -0.507783096366    0.000000000000
 C   -2.099422918563   -1.909671096366    0.000000000000
 H   -1.292016918563   -2.649882096366    0.000000000000
 H   -2.707291918563   -2.056661096366    0.905528000000
 H   -2.707291918563   -2.056661096366   -0.905528000000
CL    4.615688110642   -0.163617817892    0.000000000000
