14

 C   -2.248688804936    0.557185580002    0.000000000000
 N   -1.619934804936    1.746823580002    0.000000000000
 H   -2.139281804936    2.615036580002    0.000000000000
 H   -0.609945804936    1.806002580002    0.000000000000
 N   -3.590908804936    0.516293580002    0.000000000000
 H   -4.138950804936    1.367027580002    0.000000000000
 H   -4.088512804936   -0.364129419998    0.000000000000
 N   -1.547965804936   -0.580512419998    0.000000000000
 H   -0.536678804936   -0.512111419998    0.000000000000
 C   -2.163415804936   -1.913999419998    0.000000000000
 H   -1.356009804936   -2.654210419998    0.000000000000
 H   -2.771284804936   -2.060989419998    0.905528000000
 H   -2.771284804936   -2.060989419998   -0.905528000000
CL    4.751239303846   -0.154449463937    0.000000000000
