14

 C   -2.504660350427    0.539872285475    0.000000000000
 N   -1.875906350427    1.729510285475    0.000000000000
 H   -2.395253350427    2.597723285475    0.000000000000
 H   -0.865917350427    1.788689285475    0.000000000000
 N   -3.846880350427    0.498980285475    0.000000000000
 H   -4.394922350427    1.349714285475    0.000000000000
 H   -4.344484350427   -0.381442714525    0.000000000000
 N   -1.803937350427   -0.597825714525    0.000000000000
 H   -0.792650350427   -0.529424714525    0.000000000000
 C   -2.419387350427   -1.931312714525    0.000000000000
 H   -1.611981350427   -2.671523714525    0.000000000000
 H   -3.027256350427   -2.078302714525    0.905528000000
 H   -3.027256350427   -2.078302714525   -0.905528000000
CL    5.293444076662   -0.117776048116    0.000000000000
