14

 C   -2.568653236800    0.535543961843    0.000000000000
 N   -1.939899236800    1.725181961843    0.000000000000
 H   -2.459246236800    2.593394961843    0.000000000000
 H   -0.929910236800    1.784360961843    0.000000000000
 N   -3.910873236800    0.494651961843    0.000000000000
 H   -4.458915236800    1.345385961843    0.000000000000
 H   -4.408477236800   -0.385771038157    0.000000000000
 N   -1.867930236800   -0.602154038157    0.000000000000
 H   -0.856643236800   -0.533753038157    0.000000000000
 C   -2.483380236800   -1.935641038157    0.000000000000
 H   -1.675974236800   -2.675852038157    0.000000000000
 H   -3.091249236800   -2.082631038157    0.905528000000
 H   -3.091249236800   -2.082631038157   -0.905528000000
CL    5.428995269866   -0.108607694161    0.000000000000
