14

 C   -2.696639009545    0.526887314579    0.000000000000
 N   -2.067885009545    1.716525314579    0.000000000000
 H   -2.587232009545    2.584738314579    0.000000000000
 H   -1.057896009545    1.775704314579    0.000000000000
 N   -4.038859009545    0.485995314579    0.000000000000
 H   -4.586901009545    1.336729314579    0.000000000000
 H   -4.536463009545   -0.394427685421    0.000000000000
 N   -1.995916009545   -0.610810685421    0.000000000000
 H   -0.984629009545   -0.542409685421    0.000000000000
 C   -2.611366009545   -1.944297685421    0.000000000000
 H   -1.803960009545   -2.684508685421    0.000000000000
 H   -3.219235009545   -2.091287685421    0.905528000000
 H   -3.219235009545   -2.091287685421   -0.905528000000
CL    5.700097656274   -0.090270986250    0.000000000000
