14

 C   -2.824624782291    0.518230667315    0.000000000000
 N   -2.195870782291    1.707868667315    0.000000000000
 H   -2.715217782291    2.576081667315    0.000000000000
 H   -1.185881782291    1.767047667315    0.000000000000
 N   -4.166844782291    0.477338667315    0.000000000000
 H   -4.714886782291    1.328072667315    0.000000000000
 H   -4.664448782291   -0.403084332685    0.000000000000
 N   -2.123901782291   -0.619467332685    0.000000000000
 H   -1.112614782291   -0.551066332685    0.000000000000
 C   -2.739351782291   -1.952954332685    0.000000000000
 H   -1.931945782291   -2.693165332685    0.000000000000
 H   -3.347220782291   -2.099944332685    0.905528000000
 H   -3.347220782291   -2.099944332685   -0.905528000000
CL    5.971200042682   -0.071934278340    0.000000000000
