14

 C   -2.952610555036    0.509574020051    0.000000000000
 N   -2.323856555036    1.699212020051    0.000000000000
 H   -2.843203555036    2.567425020051    0.000000000000
 H   -1.313867555036    1.758391020051    0.000000000000
 N   -4.294830555036    0.468682020051    0.000000000000
 H   -4.842872555036    1.319416020051    0.000000000000
 H   -4.792434555036   -0.411740979949    0.000000000000
 N   -2.251887555036   -0.628123979949    0.000000000000
 H   -1.240600555036   -0.559722979949    0.000000000000
 C   -2.867337555036   -1.961610979949    0.000000000000
 H   -2.059931555036   -2.701821979949    0.000000000000
 H   -3.475206555036   -2.108600979949    0.905528000000
 H   -3.475206555036   -2.108600979949   -0.905528000000
CL    6.242302429090   -0.053597570429    0.000000000000
