14

 C   -2.984606998222    0.507409858235    0.000000000000
 N   -2.355852998222    1.697047858235    0.000000000000
 H   -2.875199998222    2.565260858235    0.000000000000
 H   -1.345863998222    1.756226858235    0.000000000000
 N   -4.326826998222    0.466517858235    0.000000000000
 H   -4.874868998222    1.317251858235    0.000000000000
 H   -4.824430998222   -0.413905141765    0.000000000000
 N   -2.283883998222   -0.630288141765    0.000000000000
 H   -1.272596998222   -0.561887141765    0.000000000000
 C   -2.899333998222   -1.963775141765    0.000000000000
 H   -2.091927998222   -2.703986141765    0.000000000000
 H   -3.507202998222   -2.110765141765    0.905528000000
 H   -3.507202998222   -2.110765141765   -0.905528000000
CL    6.310078025692   -0.049013393451    0.000000000000
