14

 C   -3.080596327782    0.500917372787    0.000000000000
 N   -2.451842327782    1.690555372787    0.000000000000
 H   -2.971189327782    2.558768372787    0.000000000000
 H   -1.441853327782    1.749734372787    0.000000000000
 N   -4.422816327782    0.460025372787    0.000000000000
 H   -4.970858327782    1.310759372787    0.000000000000
 H   -4.920420327782   -0.420397627213    0.000000000000
 N   -2.379873327782   -0.636780627213    0.000000000000
 H   -1.368586327782   -0.568379627213    0.000000000000
 C   -2.995323327782   -1.970267627213    0.000000000000
 H   -2.187917327782   -2.710478627213    0.000000000000
 H   -3.603192327782   -2.117257627213    0.905528000000
 H   -3.603192327782   -2.117257627213   -0.905528000000
CL    6.513404815498   -0.035260862519    0.000000000000
