14

 C   -3.144589214154    0.496589049155    0.000000000000
 N   -2.515835214154    1.686227049155    0.000000000000
 H   -3.035182214154    2.554440049155    0.000000000000
 H   -1.505846214154    1.745406049155    0.000000000000
 N   -4.486809214154    0.455697049155    0.000000000000
 H   -5.034851214154    1.306431049155    0.000000000000
 H   -4.984413214154   -0.424725950845    0.000000000000
 N   -2.443866214154   -0.641108950845    0.000000000000
 H   -1.432579214154   -0.572707950845    0.000000000000
 C   -3.059316214154   -1.974595950845    0.000000000000
 H   -2.251910214154   -2.714806950845    0.000000000000
 H   -3.667185214154   -2.121585950845    0.905528000000
 H   -3.667185214154   -2.121585950845   -0.905528000000
CL    6.648956008701   -0.026092508563    0.000000000000
