14

 C   -3.240578543713    0.490096563707    0.000000000000
 N   -2.611824543713    1.679734563707    0.000000000000
 H   -3.131171543713    2.547947563707    0.000000000000
 H   -1.601835543713    1.738913563707    0.000000000000
 N   -4.582798543713    0.449204563707    0.000000000000
 H   -5.130840543713    1.299938563707    0.000000000000
 H   -5.080402543713   -0.431218436293    0.000000000000
 N   -2.539855543713   -0.647601436293    0.000000000000
 H   -1.528568543713   -0.579200436293    0.000000000000
 C   -3.155305543713   -1.981088436293    0.000000000000
 H   -2.347899543713   -2.721299436293    0.000000000000
 H   -3.763174543713   -2.128078436293    0.905528000000
 H   -3.763174543713   -2.128078436293   -0.905528000000
CL    6.852282798507   -0.012339977630    0.000000000000
