14

 C   -3.272574986900    0.487932401891    0.000000000000
 N   -2.643820986900    1.677570401891    0.000000000000
 H   -3.163167986900    2.545783401891    0.000000000000
 H   -1.633831986900    1.736749401891    0.000000000000
 N   -4.614794986900    0.447040401891    0.000000000000
 H   -5.162836986900    1.297774401891    0.000000000000
 H   -5.112398986900   -0.433382598109    0.000000000000
 N   -2.571851986900   -0.649765598109    0.000000000000
 H   -1.560564986900   -0.581364598109    0.000000000000
 C   -3.187301986900   -1.983252598109    0.000000000000
 H   -2.379895986900   -2.723463598109    0.000000000000
 H   -3.795170986900   -2.130242598109    0.905528000000
 H   -3.795170986900   -2.130242598109   -0.905528000000
CL    6.920058395109   -0.007755800653    0.000000000000
