14

 C   -3.336567873273    0.483604078259    0.000000000000
 N   -2.707813873273    1.673242078259    0.000000000000
 H   -3.227160873273    2.541455078259    0.000000000000
 H   -1.697824873273    1.732421078259    0.000000000000
 N   -4.678787873273    0.442712078259    0.000000000000
 H   -5.226829873273    1.293446078259    0.000000000000
 H   -5.176391873273   -0.437710921741    0.000000000000
 N   -2.635844873273   -0.654093921741    0.000000000000
 H   -1.624557873273   -0.585692921741    0.000000000000
 C   -3.251294873273   -1.987580921741    0.000000000000
 H   -2.443888873273   -2.727791921741    0.000000000000
 H   -3.859163873273   -2.134570921741    0.905528000000
 H   -3.859163873273   -2.134570921741   -0.905528000000
CL    7.055609588313    0.001412553302    0.000000000000
