14

 C   -3.368564316459    0.481439916443    0.000000000000
 N   -2.739810316459    1.671077916443    0.000000000000
 H   -3.259157316459    2.539290916443    0.000000000000
 H   -1.729821316459    1.730256916443    0.000000000000
 N   -4.710784316459    0.440547916443    0.000000000000
 H   -5.258826316459    1.291281916443    0.000000000000
 H   -5.208388316459   -0.439875083557    0.000000000000
 N   -2.667841316459   -0.656258083557    0.000000000000
 H   -1.656554316459   -0.587857083557    0.000000000000
 C   -3.283291316459   -1.989745083557    0.000000000000
 H   -2.475885316459   -2.729956083557    0.000000000000
 H   -3.891160316459   -2.136735083557    0.905528000000
 H   -3.891160316459   -2.136735083557   -0.905528000000
CL    7.123385184915    0.005996730280    0.000000000000
