14

 C   -3.496550089204    0.472783269179    0.000000000000
 N   -2.867796089204    1.662421269179    0.000000000000
 H   -3.387143089204    2.530634269179    0.000000000000
 H   -1.857807089204    1.721600269179    0.000000000000
 N   -4.838770089204    0.431891269179    0.000000000000
 H   -5.386812089204    1.282625269179    0.000000000000
 H   -5.336374089204   -0.448531730821    0.000000000000
 N   -2.795827089204   -0.664914730821    0.000000000000
 H   -1.784540089204   -0.596513730821    0.000000000000
 C   -3.411277089204   -1.998401730821    0.000000000000
 H   -2.603871089204   -2.738612730821    0.000000000000
 H   -4.019146089204   -2.145391730821    0.905528000000
 H   -4.019146089204   -2.145391730821   -0.905528000000
CL    7.394487571323    0.024333438191    0.000000000000
