14

 C   -3.528546532391    0.470619107363    0.000000000000
 N   -2.899792532391    1.660257107363    0.000000000000
 H   -3.419139532391    2.528470107363    0.000000000000
 H   -1.889803532391    1.719436107363    0.000000000000
 N   -4.870766532391    0.429727107363    0.000000000000
 H   -5.418808532391    1.280461107363    0.000000000000
 H   -5.368370532391   -0.450695892637    0.000000000000
 N   -2.827823532391   -0.667078892637    0.000000000000
 H   -1.816536532391   -0.598677892637    0.000000000000
 C   -3.443273532391   -2.000565892637    0.000000000000
 H   -2.635867532391   -2.740776892637    0.000000000000
 H   -4.051142532391   -2.147555892637    0.905528000000
 H   -4.051142532391   -2.147555892637   -0.905528000000
CL    7.462263167925    0.028917615168    0.000000000000
