14

 C   -3.560542975577    0.468454945547    0.000000000000
 N   -2.931788975577    1.658092945547    0.000000000000
 H   -3.451135975577    2.526305945547    0.000000000000
 H   -1.921799975577    1.717271945547    0.000000000000
 N   -4.902762975577    0.427562945547    0.000000000000
 H   -5.450804975577    1.278296945547    0.000000000000
 H   -5.400366975577   -0.452860054453    0.000000000000
 N   -2.859819975577   -0.669243054453    0.000000000000
 H   -1.848532975577   -0.600842054453    0.000000000000
 C   -3.475269975577   -2.002730054453    0.000000000000
 H   -2.667863975577   -2.742941054453    0.000000000000
 H   -4.083138975577   -2.149720054453    0.905528000000
 H   -4.083138975577   -2.149720054453   -0.905528000000
CL    7.530038764527    0.033501792146    0.000000000000
