14

 C   -3.624535861950    0.464126621916    0.000000000000
 N   -2.995781861950    1.653764621916    0.000000000000
 H   -3.515128861950    2.521977621916    0.000000000000
 H   -1.985792861950    1.712943621916    0.000000000000
 N   -4.966755861950    0.423234621916    0.000000000000
 H   -5.514797861950    1.273968621916    0.000000000000
 H   -5.464359861950   -0.457188378084    0.000000000000
 N   -2.923812861950   -0.673571378084    0.000000000000
 H   -1.912525861950   -0.605170378084    0.000000000000
 C   -3.539262861950   -2.007058378084    0.000000000000
 H   -2.731856861950   -2.747269378084    0.000000000000
 H   -4.147131861950   -2.154048378084    0.905528000000
 H   -4.147131861950   -2.154048378084   -0.905528000000
CL    7.665589957731    0.042670146101    0.000000000000
