14

 C   -3.720525191509    0.457634136468    0.000000000000
 N   -3.091771191509    1.647272136468    0.000000000000
 H   -3.611118191509    2.515485136468    0.000000000000
 H   -2.081782191509    1.706451136468    0.000000000000
 N   -5.062745191509    0.416742136468    0.000000000000
 H   -5.610787191509    1.267476136468    0.000000000000
 H   -5.560349191509   -0.463680863532    0.000000000000
 N   -3.019802191509   -0.680063863532    0.000000000000
 H   -2.008515191509   -0.611662863532    0.000000000000
 C   -3.635252191509   -2.013550863532    0.000000000000
 H   -2.827846191509   -2.753761863532    0.000000000000
 H   -4.243121191509   -2.160540863532    0.905528000000
 H   -4.243121191509   -2.160540863532   -0.905528000000
CL    7.868916747537    0.056422677034    0.000000000000
