16

 N   -2.115711295761    2.852663220703    0.078395831298
 C   -0.745095883352    3.052137898544    0.074764196922
 H   -0.423311587014    4.095882829420    0.096183012615
 C   -2.715426565190    1.599548061150    0.053865840642
 O   -3.933200596722    1.432605355083    0.054861921416
 N   -1.790120549579    0.562770451308    0.026209303653
 H   -2.184694257442   -0.375743858541    0.005700430255
 C   -0.384390171184    0.648809163626    0.017761252862
 O    0.303930501244   -0.374808058176   -0.010346685691
 C    0.145379009881    2.017198032360    0.046367621996
 C    1.637668903487    2.201056357822    0.041536812170
 H    1.899216532567    3.269484234690    0.064190980317
 H    2.077813217077    1.742736138400   -0.857571439276
 H    2.088674110196    1.702569872516    0.913473649083
 H   -2.758017519090    3.636916258877    0.098291249588
CS    1.029158222082   -1.453310585435   -0.039961743077
