16

 N   -2.230241658008    3.022983909753    0.083072739189
 C   -0.859626245599    3.222458587594    0.079441104813
 H   -0.537841949261    4.266203518470    0.100859920506
 C   -2.829956927437    1.769868750200    0.058542748533
 O   -4.047730958969    1.602926044133    0.059538829307
 N   -1.904650911826    0.733091140358    0.030886211544
 H   -2.299224619689   -0.205423169491    0.010377338146
 C   -0.498920533431    0.819129852676    0.022438160753
 O    0.189400138997   -0.204487369126   -0.005669777800
 C    0.030848647634    2.187518721410    0.051044529887
 C    1.523138541240    2.371377046872    0.046213720061
 H    1.784686170320    3.439804923740    0.068867888208
 H    1.963282854830    1.913056827450   -0.852894531385
 H    1.974143747949    1.872890561566    0.918150556974
 H   -2.872547881337    3.807236947927    0.102968157479
CS    1.137774850863   -1.614836827850   -0.044397160536
