16

 N   -2.258874248569    3.065564082015    0.084241966162
 C   -0.888258836160    3.265038759856    0.080610331786
 H   -0.566474539822    4.308783690732    0.102029147479
 C   -2.858589517998    1.812448922462    0.059711975506
 O   -4.076363549530    1.645506216395    0.060708056280
 N   -1.933283502387    0.775671312620    0.032055438517
 H   -2.327857210250   -0.162842997229    0.011546565119
 C   -0.527553123992    0.861710024938    0.023607387726
 O    0.160767548436   -0.161907196864   -0.004500550827
 C    0.002216057073    2.230098893672    0.052213756860
 C    1.494505950679    2.413957219134    0.047382947034
 H    1.756053579759    3.482385096002    0.070037115181
 H    1.934650264269    1.955636999712   -0.851725304412
 H    1.945511157388    1.915470733828    0.919319783947
 H   -2.901180471898    3.849817120189    0.104137384452
CS    1.164929008058   -1.655218388453   -0.045506014901
