16

 N   -2.316139429693    3.150724426540    0.086580420108
 C   -0.945524017284    3.350199104381    0.082948785732
 H   -0.623739720946    4.393944035257    0.104367601425
 C   -2.915854699122    1.897609266987    0.062050429452
 O   -4.133628730654    1.730666560920    0.063046510226
 N   -1.990548683511    0.860831657145    0.034393892463
 H   -2.385122391374   -0.077682652704    0.013885019065
 C   -0.584818305116    0.946870369463    0.025945841672
 O    0.103502367312   -0.076746852339   -0.002162096881
 C   -0.055049124051    2.315259238197    0.054552210806
 C    1.437240769555    2.499117563659    0.049721400980
 H    1.698788398635    3.567545440527    0.072375569127
 H    1.877385083145    2.040797344237   -0.849386850466
 H    1.888245976264    2.000631078353    0.921658237893
 H   -2.958445653022    3.934977464714    0.106475838398
CS    1.219237322448   -1.735981509661   -0.047723723630
