16

 N   -2.430669791940    3.321045115590    0.091257327999
 C   -1.060054379531    3.520519793431    0.087625693623
 H   -0.738270083193    4.564264724307    0.109044509316
 C   -3.030385061369    2.067929956037    0.066727337343
 O   -4.248159092901    1.900987249970    0.067723418117
 N   -2.105079045758    1.031152346195    0.039070800354
 H   -2.499652753621    0.092638036346    0.018561926956
 C   -0.699348667363    1.117191058513    0.030622749563
 O   -0.011027994935    0.093573836711    0.002514811010
 C   -0.169579486298    2.485579927247    0.059229118697
 C    1.322710407308    2.669438252709    0.054398308871
 H    1.584258036388    3.737866129577    0.077052477018
 H    1.762854720898    2.211118033287   -0.844709942575
 H    1.773715614017    2.170951767403    0.926335145784
 H   -3.072976015269    4.105298153764    0.111152746289
CS    1.327853951228   -1.897507752075   -0.052159141089
