16

 N   -2.487934973063    3.406205460114    0.093595781944
 C   -1.117319560654    3.605680137955    0.089964147568
 H   -0.795535264316    4.649425068831    0.111382963261
 C   -3.087650242492    2.153090300561    0.069065791288
 O   -4.305424274024    1.986147594494    0.070061872062
 N   -2.162344226881    1.116312690719    0.041409254299
 H   -2.556917934744    0.177798380870    0.020900380901
 C   -0.756613848486    1.202351403037    0.032961203508
 O   -0.068293176058    0.178734181235    0.004853264955
 C   -0.226844667421    2.570740271771    0.061567572642
 C    1.265445226185    2.754598597233    0.056736762816
 H    1.526992855265    3.823026474101    0.079390930963
 H    1.705589539775    2.296278377811   -0.842371488630
 H    1.716450432894    2.256112111927    0.928673599729
 H   -3.130241196392    4.190458498288    0.113491200234
CS    1.382162265618   -1.978270873282   -0.054376849818
