16

 N   -2.573832744748    3.533945976902    0.097103462862
 C   -1.203217332339    3.733420654743    0.093471828486
 H   -0.881433036001    4.777165585619    0.114890644179
 C   -3.173548014177    2.280830817349    0.072573472206
 O   -4.391322045709    2.113888111282    0.073569552980
 N   -2.248241998566    1.244053207507    0.044916935217
 H   -2.642815706429    0.305538897658    0.024408061819
 C   -0.842511620171    1.330091919825    0.036468884426
 O   -0.154190947743    0.306474698023    0.008360945873
 C   -0.312742439106    2.698480788559    0.065075253560
 C    1.179547454500    2.882339114021    0.060244443734
 H    1.441095083580    3.950766990889    0.082898611881
 H    1.619691768090    2.424018894599   -0.838863807712
 H    1.630552661209    2.383852628715    0.932181280647
 H   -3.216138968077    4.318199015076    0.116998881152
CS    1.463624737203   -2.099415555093   -0.057703412912
