16

 N   -2.659730516434    3.661686493689    0.100611143781
 C   -1.289115104025    3.861161171530    0.096979509405
 H   -0.967330807687    4.904906102406    0.118398325098
 C   -3.259445785863    2.408571334136    0.076081153125
 O   -4.477219817395    2.241628628069    0.077077233899
 N   -2.334139770252    1.371793724294    0.048424616136
 H   -2.728713478115    0.433279414445    0.027915742738
 C   -0.928409391857    1.457832436612    0.039976565345
 O   -0.240088719429    0.434215214810    0.011868626792
 C   -0.398640210792    2.826221305346    0.068582934479
 C    1.093649682814    3.010079630808    0.063752124653
 H    1.355197311894    4.078507507676    0.086406292800
 H    1.533793996404    2.551759411386   -0.835356126793
 H    1.544654889523    2.511593145502    0.935688961566
 H   -3.302036739763    4.445939531863    0.120506562071
CS    1.545087208788   -2.220560236904   -0.061029976006
