16

 N   -2.716995697557    3.746846838214    0.102949597726
 C   -1.346380285148    3.946321516055    0.099317963350
 H   -1.024595988810    4.990066446931    0.120736779043
 C   -3.316710966986    2.493731678661    0.078419607070
 O   -4.534484998518    2.326788972594    0.079415687844
 N   -2.391404951375    1.456954068819    0.050763070081
 H   -2.785978659238    0.518439758970    0.030254196683
 C   -0.985674572980    1.542992781137    0.042315019290
 O   -0.297353900552    0.519375559335    0.014207080737
 C   -0.455905391915    2.911381649871    0.070921388424
 C    1.036384501691    3.095239975333    0.066090578598
 H    1.297932130771    4.163667852201    0.088744746745
 H    1.476528815281    2.636919755911   -0.833017672848
 H    1.487389708400    2.596753490027    0.938027415511
 H   -3.359301920886    4.531099876388    0.122845016016
CS    1.599395523179   -2.301323358111   -0.063247684735
