16

 N   -3.031954193736    4.215228733101    0.115811094427
 C   -1.661338781327    4.414703410942    0.112179460051
 H   -1.339554484989    5.458448341818    0.133598275744
 C   -3.631669463165    2.962113573548    0.091281103771
 O   -4.849443494697    2.795170867481    0.092277184545
 N   -2.706363447554    1.925335963706    0.063624566782
 H   -3.100937155417    0.986821653857    0.043115693384
 C   -1.300633069159    2.011374676024    0.055176515991
 O   -0.612312396731    0.987757454222    0.027068577438
 C   -0.770863888094    3.379763544758    0.083782885125
 C    0.721426005512    3.563621870220    0.078952075299
 H    0.982973634592    4.632049747088    0.101606243446
 H    1.161570319102    3.105301650798   -0.820156176147
 H    1.172431212221    3.065135384914    0.950888912212
 H   -3.674260417065    4.999481771275    0.135706512717
CS    1.898091252324   -2.745520524751   -0.075445082746
