16

 N   -3.089219374859    4.300389077626    0.118149548372
 C   -1.718603962450    4.499863755467    0.114517913996
 H   -1.396819666112    5.543608686343    0.135936729689
 C   -3.688934644288    3.047273918073    0.093619557716
 O   -4.906708675820    2.880331212006    0.094615638490
 N   -2.763628628677    2.010496308231    0.065963020727
 H   -3.158202336540    1.071981998382    0.045454147329
 C   -1.357898250282    2.096535020549    0.057514969936
 O   -0.669577577854    1.072917798747    0.029407031383
 C   -0.828129069217    3.464923889283    0.086121339070
 C    0.664160824389    3.648782214745    0.081290529244
 H    0.925708453469    4.717210091613    0.103944697391
 H    1.104305137979    3.190461995323   -0.817817722202
 H    1.115166031098    3.150295729439    0.953227366157
 H   -3.731525598188    5.084642115800    0.138044966662
CS    1.952399566714   -2.826283645959   -0.077662791475
