16

 N   -3.117851965421    4.342969249888    0.119318775345
 C   -1.747236553012    4.542443927729    0.115687140969
 H   -1.425452256674    5.586188858605    0.137105956662
 C   -3.717567234850    3.089854090335    0.094788784689
 O   -4.935341266382    2.922911384268    0.095784865463
 N   -2.792261219239    2.053076480493    0.067132247700
 H   -3.186834927102    1.114562170644    0.046623374302
 C   -1.386530840844    2.139115192811    0.058684196909
 O   -0.698210168416    1.115497971009    0.030576258356
 C   -0.856761659779    3.507504061545    0.087290566043
 C    0.635528233827    3.691362387007    0.082459756217
 H    0.897075862907    4.759790263875    0.105113924364
 H    1.075672547417    3.233042167585   -0.816648495229
 H    1.086533440536    3.192875901701    0.954396593130
 H   -3.760158188750    5.127222288062    0.139214193635
CS    1.979553723909   -2.866665206562   -0.078771645840
