16

 N   -3.146484555983    4.385549422151    0.120488002318
 C   -1.775869143574    4.585024099992    0.116856367942
 H   -1.454084847236    5.628769030868    0.138275183635
 C   -3.746199825412    3.132434262598    0.095958011662
 O   -4.963973856944    2.965491556531    0.096954092436
 N   -2.820893809801    2.095656652756    0.068301474673
 H   -3.215467517664    1.157142342907    0.047792601275
 C   -1.415163431406    2.181695365074    0.059853423882
 O   -0.726842758978    1.158078143272    0.031745485329
 C   -0.885394250341    3.550084233808    0.088459793016
 C    0.606895643265    3.733942559270    0.083628983190
 H    0.868443272345    4.802370436138    0.106283151337
 H    1.047039956855    3.275622339848   -0.815479268256
 H    1.057900849974    3.235456073964    0.955565820103
 H   -3.788790779312    5.169802460325    0.140383420608
CS    2.006707881105   -2.907046767166   -0.079880500205
