16

 N   -3.175117146544    4.428129594413    0.121657229291
 C   -1.804501734135    4.627604272254    0.118025594915
 H   -1.482717437797    5.671349203130    0.139444410608
 C   -3.774832415973    3.175014434860    0.097127238635
 O   -4.992606447505    3.008071728793    0.098123319409
 N   -2.849526400362    2.138236825018    0.069470701646
 H   -3.244100108225    1.199722515169    0.048961828248
 C   -1.443796021967    2.224275537336    0.061022650855
 O   -0.755475349539    1.200658315534    0.032914712302
 C   -0.914026840902    3.592664406070    0.089629019989
 C    0.578263052704    3.776522731532    0.084798210163
 H    0.839810681784    4.844950608400    0.107452378310
 H    1.018407366294    3.318202512110   -0.814310041283
 H    1.029268259413    3.278036246226    0.956735047076
 H   -3.817423369873    5.212382632587    0.141552647581
CS    2.033862038300   -2.947428327770   -0.080989354569
