16

 N   -3.289647508791    4.598450283463    0.126334137182
 C   -1.919032096382    4.797924961304    0.122702502806
 H   -1.597247800044    5.841669892180    0.144121318499
 C   -3.889362778220    3.345335123910    0.101804146526
 O   -5.107136809752    3.178392417843    0.102800227300
 N   -2.964056762609    2.308557514068    0.074147609537
 H   -3.358630470472    1.370043204219    0.053638736139
 C   -1.558326384214    2.394596226386    0.065699558746
 O   -0.870005711786    1.370979004584    0.037591620193
 C   -1.028557203149    3.762985095120    0.094305927880
 C    0.463732690457    3.946843420582    0.089475118054
 H    0.725280319537    5.015271297450    0.112129286201
 H    0.903877004047    3.488523201160   -0.809633133392
 H    0.914737897166    3.448356935276    0.961411954967
 H   -3.931953732120    5.382703321637    0.146229555472
CS    2.142478667080   -3.108954570184   -0.085424772028
