16

 N   -3.375545280477    4.726190800250    0.129841818100
 C   -2.004929868068    4.925665478091    0.126210183724
 H   -1.683145571730    5.969410408967    0.147628999417
 C   -3.975260549906    3.473075640697    0.105311827444
 O   -5.193034581438    3.306132934630    0.106307908218
 N   -3.049954534295    2.436298030855    0.077655290455
 H   -3.444528242158    1.497783721006    0.057146417057
 C   -1.644224155900    2.522336743173    0.069207239664
 O   -0.955903483472    1.498719521371    0.041099301111
 C   -1.114454974835    3.890725611907    0.097813608798
 C    0.377834918771    4.074583937369    0.092982798972
 H    0.639382547851    5.143011814237    0.115636967119
 H    0.817979232361    3.616263717947   -0.806125452474
 H    0.828840125480    3.576097452063    0.964919635885
 H   -4.017851503806    5.510443838424    0.149737236390
CS    2.223941138665   -3.230099251995   -0.088751335122
