16

 N   -3.461443052162    4.853931317037    0.133349499019
 C   -2.090827639753    5.053405994878    0.129717864643
 H   -1.769043343415    6.097150925754    0.151136680336
 C   -4.061158321591    3.600816157484    0.108819508363
 O   -5.278932353123    3.433873451417    0.109815589137
 N   -3.135852305980    2.564038547642    0.081162971374
 H   -3.530426013843    1.625524237793    0.060654097976
 C   -1.730121927585    2.650077259960    0.072714920583
 O   -1.041801255157    1.626460038158    0.044606982030
 C   -1.200352746520    4.018466128694    0.101321289717
 C    0.291937147086    4.202324454156    0.096490479891
 H    0.553484776166    5.270752331024    0.119144648038
 H    0.732081460676    3.744004234734   -0.802617771555
 H    0.742942353795    3.703837968850    0.968427316804
 H   -4.103749275491    5.638184355211    0.153244917309
CS    2.305403610250   -3.351243933806   -0.092077898216
