16

 N   -3.633238595532    5.109412350612    0.140364860855
 C   -2.262623183123    5.308887028453    0.136733226479
 H   -1.940838886785    6.352631959329    0.158152042172
 C   -4.232953864961    3.856297191059    0.115834870199
 O   -5.450727896493    3.689354484992    0.116830950973
 N   -3.307647849350    2.819519581217    0.088178333210
 H   -3.702221557213    1.881005271368    0.067669459812
 C   -1.901917470955    2.905558293535    0.079730282419
 O   -1.213596798527    1.881941071733    0.051622343866
 C   -1.372148289890    4.273947162269    0.108336651553
 C    0.120141603716    4.457805487731    0.103505841727
 H    0.381689232796    5.526233364599    0.126160009874
 H    0.560285917306    3.999485268309   -0.795602409719
 H    0.571146810425    3.959319002425    0.975442678640
 H   -4.275544818861    5.893665388786    0.160260279145
CS    2.468328553421   -3.593533297428   -0.098731024404
