16

 N   -3.805034138902    5.364893384187    0.147380222692
 C   -2.434418726493    5.564368062028    0.143748588316
 H   -2.112634430155    6.608112992904    0.165167404009
 C   -4.404749408331    4.111778224634    0.122850232036
 O   -5.622523439863    3.944835518567    0.123846312810
 N   -3.479443392720    3.075000614792    0.095193695047
 H   -3.874017100583    2.136486304943    0.074684821649
 C   -2.073713014325    3.161039327110    0.086745644256
 O   -1.385392341897    2.137422105308    0.058637705703
 C   -1.543943833260    4.529428195844    0.115352013390
 C   -0.051653939654    4.713286521306    0.110521203564
 H    0.209893689426    5.781714398174    0.133175371711
 H    0.388490373936    4.254966301884   -0.788587047882
 H    0.399351267055    4.214800036000    0.982458040477
 H   -4.447340362231    6.149146422361    0.167275640982
CS    2.631253496591   -3.835822661049   -0.105384150591
