16

 N   -3.862299320026    5.450053728712    0.149718676637
 C   -2.491683907617    5.649528406553    0.146087042261
 H   -2.169899611279    6.693273337429    0.167505857954
 C   -4.462014589455    4.196938569159    0.125188685981
 O   -5.679788620987    4.029995863092    0.126184766755
 N   -3.536708573844    3.160160959317    0.097532148992
 H   -3.931282281707    2.221646649468    0.077023275594
 C   -2.130978195449    3.246199671635    0.089084098201
 O   -1.442657523021    2.222582449833    0.060976159648
 C   -1.601209014384    4.614588540369    0.117690467335
 C   -0.108919120778    4.798446865831    0.112859657509
 H    0.152628508302    5.866874742699    0.135513825656
 H    0.331225192812    4.340126646409   -0.786248593937
 H    0.342086085931    4.299960380525    0.984796494422
 H   -4.504605543355    6.234306766886    0.169614094927
CS    2.685561810981   -3.916585782257   -0.107601859321
