16

 N   -3.890931910588    5.492633900974    0.150887903610
 C   -2.520316498179    5.692108578815    0.147256269234
 H   -2.198532201841    6.735853509691    0.168675084927
 C   -4.490647180017    4.239518741421    0.126357912954
 O   -5.708421211549    4.072576035354    0.127353993728
 N   -3.565341164406    3.202741131579    0.098701375965
 H   -3.959914872269    2.264226821730    0.078192502567
 C   -2.159610786011    3.288779843897    0.090253325174
 O   -1.471290113583    2.265162622095    0.062145386621
 C   -1.629841604946    4.657168712631    0.118859694308
 C   -0.137551711340    4.841027038093    0.114028884482
 H    0.123995917740    5.909454914961    0.136683052629
 H    0.302592602250    4.382706818671   -0.785079366964
 H    0.313453495369    4.342540552787    0.985965721395
 H   -4.533238133917    6.276886939148    0.170783321900
CS    2.712715968176   -3.956967342860   -0.108710713685
