16

 N   -3.976829682273    5.620374417761    0.154395584529
 C   -2.606214269864    5.819849095602    0.150763950153
 H   -2.284429973526    6.863594026478    0.172182765846
 C   -4.576544951702    4.367259258208    0.129865593873
 O   -5.794318983234    4.200316552141    0.130861674647
 N   -3.651238936091    3.330481648366    0.102209056884
 H   -4.045812643954    2.391967338517    0.081700183486
 C   -2.245508557696    3.416520360684    0.093761006093
 O   -1.557187885268    2.392903138882    0.065653067540
 C   -1.715739376631    4.784909229418    0.122367375227
 C   -0.223449483025    4.968767554880    0.117536565401
 H    0.038098146055    6.037195431748    0.140190733548
 H    0.216694830565    4.510447335458   -0.781571686045
 H    0.227555723684    4.470281069574    0.989473402314
 H   -4.619135905602    6.404627455935    0.174291002819
CS    2.794178439761   -4.078112024671   -0.112037276779
