16

 N   -4.005462272834    5.662954590024    0.155564811501
 C   -2.634846860425    5.862429267865    0.151933177125
 H   -2.313062564087    6.906174198741    0.173351992818
 C   -4.605177542263    4.409839430471    0.131034820845
 O   -5.822951573795    4.242896724404    0.132030901619
 N   -3.679871526652    3.373061820629    0.103378283856
 H   -4.074445234515    2.434547510780    0.082869410458
 C   -2.274141148257    3.459100532947    0.094930233065
 O   -1.585820475829    2.435483311145    0.066822294512
 C   -1.744371967192    4.827489401681    0.123536602199
 C   -0.252082073586    5.011347727143    0.118705792373
 H    0.009465555494    6.079775604011    0.141359960520
 H    0.188062240004    4.553027507721   -0.780402459073
 H    0.198923133123    4.512861241837    0.990642629286
 H   -4.647768496163    6.447207628198    0.175460229791
CS    2.821332596956   -4.118493585275   -0.113146131144
