16

 N   -4.034094863396    5.705534762286    0.156734038474
 C   -2.663479450987    5.905009440127    0.153102404098
 H   -2.341695154649    6.948754371003    0.174521219791
 C   -4.633810132825    4.452419602733    0.132204047818
 O   -5.851584164357    4.285476896666    0.133200128592
 N   -3.708504117214    3.415641992891    0.104547510829
 H   -4.103077825077    2.477127683042    0.084038637431
 C   -2.302773738819    3.501680705209    0.096099460038
 O   -1.614453066391    2.478063483407    0.067991521485
 C   -1.773004557754    4.870069573943    0.124705829172
 C   -0.280714664148    5.053927899405    0.119875019346
 H   -0.019167035068    6.122355776273    0.142529187493
 H    0.159429649442    4.595607679983   -0.779233232100
 H    0.170290542561    4.555441414099    0.991811856259
 H   -4.676401086725    6.489787800460    0.176629456764
CS    2.848486754151   -4.158875145878   -0.114254985509
