16

 N   -4.062727453958    5.748114934549    0.157903265447
 C   -2.692112041549    5.947589612390    0.154271631071
 H   -2.370327745211    6.991334543266    0.175690446764
 C   -4.662442723387    4.494999774996    0.133373274791
 O   -5.880216754919    4.328057068929    0.134369355565
 N   -3.737136707776    3.458222165154    0.105716737802
 H   -4.131710415639    2.519707855305    0.085207864404
 C   -2.331406329381    3.544260877472    0.097268687011
 O   -1.643085656953    2.520643655670    0.069160748458
 C   -1.801637148316    4.912649746206    0.125875056145
 C   -0.309347254710    5.096508071668    0.121044246319
 H   -0.047799625630    6.164935948536    0.143698414466
 H    0.130797058880    4.638187852246   -0.778064005127
 H    0.141657951999    4.598021586362    0.992981083232
 H   -4.705033677287    6.532367972723    0.177798683737
CS    2.875640911347   -4.199256706482   -0.115363839873
