16

 N   -4.119992635081    5.833275279074    0.160241719392
 C   -2.749377222672    6.032749956915    0.156610085016
 H   -2.427592926334    7.076494887791    0.178028900709
 C   -4.719707904510    4.580160119521    0.135711728736
 O   -5.937481936042    4.413217413454    0.136707809510
 N   -3.794401888899    3.543382509679    0.108055191747
 H   -4.188975596762    2.604868199830    0.087546318349
 C   -2.388671510504    3.629421221997    0.099607140956
 O   -1.700350838076    2.605804000195    0.071499202403
 C   -1.858902329439    4.997810090731    0.128213510090
 C   -0.366612435833    5.181668416193    0.123382700264
 H   -0.105064806753    6.250096293061    0.146036868411
 H    0.073531877757    4.723348196771   -0.775725551182
 H    0.084392770876    4.683181930887    0.995319537177
 H   -4.762298858410    6.617528317248    0.180137137682
CS    2.929949225737   -4.280019827689   -0.117581548603
