16

 N   -4.263155587890    6.046176140386    0.166087854256
 C   -2.892540175481    6.245650818227    0.162456219880
 H   -2.570755879143    7.289395749103    0.183875035573
 C   -4.862870857319    4.793060980833    0.141557863600
 O   -6.080644888851    4.626118274766    0.142553944374
 N   -3.937564841708    3.756283370991    0.113901326611
 H   -4.332138549571    2.817769061142    0.093392453213
 C   -2.531834463313    3.842322083309    0.105453275820
 O   -1.843513790885    2.818704861507    0.077345337267
 C   -2.002065282248    5.210710952043    0.134059644954
 C   -0.509775388642    5.394569277505    0.129228835128
 H   -0.248227759562    6.462997154373    0.151883003275
 H   -0.069631075052    4.936249058083   -0.769879416318
 H   -0.058770181933    4.896082792199    1.001165672041
 H   -4.905461811219    6.830429178560    0.185983272546
CS    3.065720011712   -4.481927630708   -0.123125820426
