16

 N   -4.291788178452    6.088756312648    0.167257081229
 C   -2.921172766043    6.288230990489    0.163625446853
 H   -2.599388469705    7.331975921365    0.185044262546
 C   -4.891503447881    4.835641153095    0.142727090573
 O   -6.109277479413    4.668698447028    0.143723171347
 N   -3.966197432270    3.798863543253    0.115070553584
 H   -4.360771140133    2.860349233404    0.094561680186
 C   -2.560467053875    3.884902255571    0.106622502793
 O   -1.872146381447    2.861285033769    0.078514564240
 C   -2.030697872810    5.253291124305    0.135228871927
 C   -0.538407979204    5.437149449767    0.130398062101
 H   -0.276860350124    6.505577326635    0.153052230248
 H   -0.098263665614    4.978829230345   -0.768710189345
 H   -0.087402772495    4.938662964461    1.002334899014
 H   -4.934094401781    6.873009350822    0.187152499519
CS    3.092874168907   -4.522309191311   -0.124234674790
