16

 N   -4.406318540698    6.259077001698    0.171933989120
 C   -3.035703128289    6.458551679539    0.168302354744
 H   -2.713918831951    7.502296610415    0.189721170437
 C   -5.006033810127    5.005961842145    0.147403998464
 O   -6.223807841659    4.839019136078    0.148400079238
 N   -4.080727794516    3.969184232303    0.119747461475
 H   -4.475301502379    3.030669922454    0.099238588077
 C   -2.674997416121    4.055222944621    0.111299410684
 O   -1.986676743693    3.031605722819    0.083191472131
 C   -2.145228235056    5.423611813355    0.139905779818
 C   -0.652938341450    5.607470138817    0.135074969992
 H   -0.391390712370    6.675898015685    0.157729138139
 H   -0.212794027860    5.149149919395   -0.764033281454
 H   -0.201933134741    5.108983653511    1.007011806905
 H   -5.048624764027    7.043330039872    0.191829407410
CS    3.201490797687   -4.683835433726   -0.128670092249
