16

 N   -4.434951131260    6.301657173960    0.173103216093
 C   -3.064335718851    6.501131851801    0.169471581717
 H   -2.742551422513    7.544876782677    0.190890397410
 C   -5.034666400689    5.048542014407    0.148573225437
 O   -6.252440432221    4.881599308340    0.149569306211
 N   -4.109360385078    4.011764404565    0.120916688448
 H   -4.503934092941    3.073250094716    0.100407815050
 C   -2.703630006683    4.097803116883    0.112468637657
 O   -2.015309334255    3.074185895081    0.084360699104
 C   -2.173860825618    5.466191985617    0.141075006791
 C   -0.681570932012    5.650050311079    0.136244196965
 H   -0.420023302932    6.718478187947    0.158898365112
 H   -0.241426618422    5.191730091657   -0.762864054481
 H   -0.230565725303    5.151563825773    1.008181033878
 H   -5.077257354589    7.085910212134    0.192998634383
CS    3.228644954882   -4.724216994329   -0.129778946614
