16

 N   -4.549481493507    6.471977863010    0.177780123984
 C   -3.178866081098    6.671452540851    0.174148489608
 H   -2.857081784760    7.715197471727    0.195567305301
 C   -5.149196762936    5.218862703457    0.153250133328
 O   -6.366970794468    5.051919997390    0.154246214102
 N   -4.223890747325    4.182085093615    0.125593596339
 H   -4.618464455188    3.243570783766    0.105084722941
 C   -2.818160368930    4.268123805933    0.117145545548
 O   -2.129839696502    3.244506584131    0.089037606995
 C   -2.288391187865    5.636512674667    0.145751914682
 C   -0.796101294259    5.820371000129    0.140921104856
 H   -0.534553665179    6.888798876997    0.163575273003
 H   -0.355956980669    5.362050780707   -0.758187146590
 H   -0.345096087550    5.321884514823    1.012857941769
 H   -5.191787716836    7.256230901184    0.197675542274
CS    3.337261583663   -4.885743236744   -0.134214364072
