16

 N   -4.578114084069    6.514558035273    0.178949350957
 C   -3.207498671660    6.714032713114    0.175317716581
 H   -2.885714375322    7.757777643990    0.196736532274
 C   -5.177829353498    5.261442875720    0.154419360301
 O   -6.395603385030    5.094500169653    0.155415441075
 N   -4.252523337887    4.224665265878    0.126762823312
 H   -4.647097045750    3.286150956029    0.106253949914
 C   -2.846792959492    4.310703978196    0.118314772521
 O   -2.158472287064    3.287086756394    0.090206833968
 C   -2.317023778427    5.679092846930    0.146921141655
 C   -0.824733884821    5.862951172392    0.142090331829
 H   -0.563186255741    6.931379049260    0.164744499976
 H   -0.384589571231    5.404630952970   -0.757017919617
 H   -0.373728678112    5.364464687086    1.014027168742
 H   -5.220420307398    7.298811073447    0.198844769247
CS    3.364415740858   -4.926124797347   -0.135323218437
