27

 P   -1.548945498864    1.714311819435   -0.930754932824
 O   -2.506525498864    2.836961819435   -1.317064932824
 O   -1.004805498864    0.691421819435   -1.924934932824
 O   -0.232805498864    2.342531819435   -0.072514932824
 O   -2.158275498864    0.861861819435    0.398245067176
 C    0.175294501136    3.663931819435   -0.457234932824
 H   -0.628025498864    4.176551819435   -1.007154932824
 H    1.074364501136    3.590241819435   -1.087604932824
 H    0.407074501136    4.206591819435    0.471745067176
 C   -3.589685498864    0.769271819435    0.460815067176
 H   -3.897135498864   -0.233648180565    0.128005067176
 H   -4.059195498864    1.535901819435   -0.173504932824
 H   -3.871365498864    0.921611819435    1.513765067176
RB    0.403954501136   -0.447078180565    0.242735067176
 P    1.274546049272   -1.410613367326    0.765870135957
 O   -0.041597219357   -2.038833528021   -0.092371950252
 O    1.883874037408   -0.558160549151   -0.563137522282
 O    2.232123867243   -2.533267521877    1.152176312195
 O    0.730400908498   -0.387728610182    1.760050801367
 C   -0.449703794597   -3.360235679431    0.292343044900
 H    0.353608550463   -3.872858608148    0.842264004791
 H   -1.348781571199   -3.286543604118    0.922718250675
 H   -0.681483282899   -3.902900959390   -0.636636484062
 C    3.315279042761   -0.465577748075   -0.625706789465
 H    3.622735619871    0.537343659677   -0.292895471352
 H    3.784787784605   -1.232210293742    0.008615004938
 H    3.596956723377   -0.617912725705   -1.678657910711
