27

 P   -1.664993140434    1.842748611904   -1.000487508432
 O   -2.622573140434    2.965398611904   -1.386797508432
 O   -1.120853140434    0.819858611904   -1.994667508432
 O   -0.348853140434    2.470968611904   -0.142247508432
 O   -2.274323140434    0.990298611904    0.328512491568
 C    0.059246859566    3.792368611904   -0.526967508432
 H   -0.744073140434    4.304988611904   -1.076887508432
 H    0.958316859566    3.718678611904   -1.157337508432
 H    0.291026859566    4.335028611904    0.402012491568
 C   -3.705733140434    0.897708611904    0.391082491568
 H   -4.013183140434   -0.105211388096    0.058272491568
 H   -4.175243140434    1.664338611904   -0.243237508432
 H   -3.987413140434    1.050048611904    1.444032491568
RB    0.287906859566   -0.318641388096    0.173002491568
 P    1.469423960607   -1.626296284414    0.882971513484
 O    0.153280691978   -2.254516445109    0.024729427276
 O    2.078751948743   -0.773843466239   -0.446036144755
 O    2.427001778578   -2.748950438965    1.269277689722
 O    0.925278819834   -0.603411527269    1.877152178894
 C   -0.254825883262   -3.575918596519    0.409444422427
 H    0.548486461798   -4.088541525235    0.959365382319
 H   -1.153903659864   -3.502226521205    1.039819628202
 H   -0.486605371564   -4.118583876478   -0.519535106534
 C    3.510156954096   -0.681260665163   -0.508605411938
 H    3.817613531206    0.321660742589   -0.175794093825
 H    3.979665695940   -1.447893210830    0.125716382465
 H    3.791834634712   -0.833595642793   -1.561556533184
