27

 P   -1.688202668749    1.868435970398   -1.014434023554
 O   -2.645782668749    2.991085970398   -1.400744023554
 O   -1.144062668749    0.845545970398   -2.008614023554
 O   -0.372062668749    2.496655970398   -0.156194023554
 O   -2.297532668749    1.015985970398    0.314565976446
 C    0.036037331251    3.818055970398   -0.540914023554
 H   -0.767282668749    4.330675970398   -1.090834023554
 H    0.935107331251    3.744365970398   -1.171284023554
 H    0.267817331251    4.360715970398    0.388065976446
 C   -3.728942668749    0.923395970398    0.377135976446
 H   -4.036392668749   -0.079524029602    0.044325976446
 H   -4.198452668749    1.690025970398   -0.257184023554
 H   -4.010622668749    1.075735970398    1.430085976446
RB    0.264697331251   -0.292954029602    0.159055976446
 P    1.508399542874   -1.669432867831    0.906391788990
 O    0.192256274245   -2.297653028526    0.048149702781
 O    2.117727531010   -0.816980049656   -0.422615869250
 O    2.465977360845   -2.792087022382    1.292697965227
 O    0.964254402101   -0.646548110687    1.900572454399
 C   -0.215850300995   -3.619055179936    0.432864697932
 H    0.587462044065   -4.131678108653    0.982785657824
 H   -1.114928077597   -3.545363104623    1.063239903707
 H   -0.447629789296   -4.161720459896   -0.496114831029
 C    3.549132536363   -0.724397248580   -0.485185136433
 H    3.856589113473    0.278524159172   -0.152373818319
 H    4.018641278207   -1.491029794248    0.149136657971
 H    3.830810216979   -0.876732226210   -1.538136257678
