27

 P   -1.734621725377    1.919810687386   -1.042327053798
 O   -2.692201725377    3.042460687386   -1.428637053798
 O   -1.190481725377    0.896920687386   -2.036507053798
 O   -0.418481725377    2.548030687386   -0.184087053798
 O   -2.343951725377    1.067360687386    0.286672946202
 C   -0.010381725377    3.869430687386   -0.568807053798
 H   -0.813701725377    4.382050687386   -1.118727053798
 H    0.888688274623    3.795740687386   -1.199177053798
 H    0.221398274623    4.412090687386    0.360172946202
 C   -3.775361725377    0.974770687386    0.349242946202
 H   -4.082811725377   -0.028149312614    0.016432946202
 H   -4.244871725377    1.741400687386   -0.285077053798
 H   -4.057041725377    1.127110687386    1.402192946202
RB    0.218278274623   -0.241579312614    0.131162946202
 P    1.586350707408   -1.755706034667    0.953232340001
 O    0.270207438779   -2.383926195361    0.094990253792
 O    2.195678695544   -0.903253216491   -0.375775318239
 O    2.543928525379   -2.878360189217    1.339538516238
 O    1.042205566635   -0.732821277522    1.947413005410
 C   -0.137899136461   -3.705328346771    0.479705248943
 H    0.665413208599   -4.217951275488    1.029626208835
 H   -1.036976913063   -3.631636271458    1.110080454718
 H   -0.369678624762   -4.247993626731   -0.449274280018
 C    3.627083700897   -0.810670415415   -0.438344585422
 H    3.934540278007    0.192250992337   -0.105533267308
 H    4.096592442741   -1.577302961083    0.195977208982
 H    3.908761381514   -0.963005393045   -1.491295706668
