27

 P   -1.757831253691    1.945498045880   -1.056273568919
 O   -2.715411253691    3.068148045880   -1.442583568919
 O   -1.213691253691    0.922608045880   -2.050453568919
 O   -0.441691253691    2.573718045880   -0.198033568919
 O   -2.367161253691    1.093048045880    0.272726431081
 C   -0.033591253691    3.895118045880   -0.582753568919
 H   -0.836911253691    4.407738045880   -1.132673568919
 H    0.865478746309    3.821428045880   -1.213123568919
 H    0.198188746309    4.437778045880    0.346226431081
 C   -3.798571253691    1.000458045880    0.335296431081
 H   -4.106021253691   -0.002461954120    0.002486431081
 H   -4.268081253691    1.767088045880   -0.299023568919
 H   -4.080251253691    1.152798045880    1.388246431081
RB    0.195068746309   -0.215891954120    0.117216431081
 P    1.625326289675   -1.798842618084    0.976652615506
 O    0.309183021046   -2.427062778779    0.118410529297
 O    2.234654277811   -0.946389799909   -0.352355042734
 O    2.582904107646   -2.921496772635    1.362958791744
 O    1.081181148902   -0.775957860940    1.970833280916
 C   -0.098923554194   -3.748464930189    0.503125524449
 H    0.704388790866   -4.261087858906    1.053046484340
 H   -0.998001330796   -3.674772854876    1.133500730224
 H   -0.330703042495   -4.291130210148   -0.425854004513
 C    3.666059283164   -0.853806998833   -0.414924309916
 H    3.973515860274    0.149114408919   -0.082112991803
 H    4.135568025008   -1.620439544500    0.219397484487
 H    3.947736963781   -1.006141976463   -1.467875431162
