27

 P   -1.781040782005    1.971185404374   -1.070220084041
 O   -2.738620782005    3.093835404374   -1.456530084041
 O   -1.236900782005    0.948295404374   -2.064400084041
 O   -0.464900782005    2.599405404374   -0.211980084041
 O   -2.390370782005    1.118735404374    0.258779915959
 C   -0.056800782005    3.920805404374   -0.596700084041
 H   -0.860120782005    4.433425404374   -1.146620084041
 H    0.842269217995    3.847115404374   -1.227070084041
 H    0.174979217995    4.463465404374    0.332279915959
 C   -3.821780782005    1.026145404374    0.321349915959
 H   -4.129230782005    0.023225404374   -0.011460084041
 H   -4.291290782005    1.792775404374   -0.312970084041
 H   -4.103460782005    1.178485404374    1.374299915959
RB    0.171859217995   -0.190204595626    0.103269915959
 P    1.664301871942   -1.841979201502    1.000072891011
 O    0.348158603313   -2.470199362196    0.141830804803
 O    2.273629860078   -0.989526383326   -0.328934767228
 O    2.621879689913   -2.964633356052    1.386379067249
 O    1.120156731169   -0.819094444357    1.994253556421
 C   -0.059947971927   -3.791601513606    0.526545799954
 H    0.743364373133   -4.304224442323    1.076466759846
 H   -0.959025748529   -3.717909438293    1.156921005729
 H   -0.291727460228   -4.334266793566   -0.402433729007
 C    3.705034865431   -0.896943582250   -0.391504034411
 H    4.012491442541    0.105977825502   -0.058692716298
 H    4.174543607275   -1.663576127918    0.242817759992
 H    3.986712546048   -1.049278559880   -1.444455155657
