27

 P   -1.850669366947    2.048247479856   -1.112059629407
 O   -2.808249366947    3.170897479856   -1.498369629407
 O   -1.306529366947    1.025357479856   -2.106239629407
 O   -0.534529366947    2.676467479856   -0.253819629407
 O   -2.459999366947    1.195797479856    0.216940370593
 C   -0.126429366947    3.997867479856   -0.638539629407
 H   -0.929749366947    4.510487479856   -1.188459629407
 H    0.772640633053    3.924177479856   -1.268909629407
 H    0.105350633053    4.540527479856    0.290440370593
 C   -3.891409366947    1.103207479856    0.279510370593
 H   -4.198859366947    0.100287479856   -0.053299629407
 H   -4.360919366947    1.869837479856   -0.354809629407
 H   -4.173089366947    1.255547479856    1.332460370593
RB    0.102230633053   -0.113142520144    0.061430370593
 P    1.781228618743   -1.971388951754    1.070333717528
 O    0.465085350114   -2.599609112449    0.212091631319
 O    2.390556606879   -1.118936133579   -0.258673940712
 O    2.738806436715   -3.094043106305    1.456639893765
 O    1.237083477970   -0.948504194610    2.064514382937
 C    0.056978774874   -3.921011263859    0.596806626470
 H    0.860291119934   -4.433634192576    1.146727586362
 H   -0.842099001728   -3.847319188546    1.227181832245
 H   -0.174800713427   -4.463676543819   -0.332172902491
 C    3.821961612232   -1.026353332503   -0.321243207895
 H    4.129418189342   -0.023431924751    0.011568110219
 H    4.291470354076   -1.792985878171    0.313078586509
 H    4.103639292849   -1.178688310133   -1.374194329141
