27

 P   -1.873878895261    2.073934838350   -1.126006144528
 O   -2.831458895261    3.196584838350   -1.512316144528
 O   -1.329738895261    1.051044838350   -2.120186144528
 O   -0.557738895261    2.702154838350   -0.267766144528
 O   -2.483208895261    1.221484838350    0.202993855472
 C   -0.149638895261    4.023554838350   -0.652486144528
 H   -0.952958895261    4.536174838350   -1.202406144528
 H    0.749431104739    3.949864838350   -1.282856144528
 H    0.082141104739    4.566214838350    0.276493855472
 C   -3.914618895261    1.128894838350    0.265563855472
 H   -4.222068895261    0.125974838350   -0.067246144528
 H   -4.384128895261    1.895524838350   -0.368756144528
 H   -4.196298895261    1.281234838350    1.318513855472
RB    0.079021104739   -0.087455161650    0.047483855472
 P    1.820204201010   -2.014525535172    1.093753993033
 O    0.504060932381   -2.642745695867    0.235511906824
 O    2.429532189146   -1.162072716997   -0.235253665206
 O    2.777782018982   -3.137179689723    1.480060169271
 O    1.276059060237   -0.991640778027    2.087934658443
 C    0.095954357141   -3.964147847277    0.620226901976
 H    0.899266702201   -4.476770775993    1.170147861867
 H   -0.803123419461   -3.890455771963    1.250602107751
 H   -0.135825131160   -4.506813127236   -0.308752626986
 C    3.860937194499   -1.069489915921   -0.297822932389
 H    4.168393771609   -0.066568508169    0.034988385724
 H    4.330445936343   -1.836122461588    0.336498862014
 H    4.142614875116   -1.221824893551   -1.350774053635
