27

 P   -2.013136065146    2.228058989313   -1.209685235259
 O   -2.970716065146    3.350708989313   -1.595995235259
 O   -1.468996065146    1.205168989313   -2.203865235259
 O   -0.696996065146    2.856278989313   -0.351445235259
 O   -2.622466065146    1.375608989313    0.119314764741
 C   -0.288896065146    4.177678989313   -0.736165235259
 H   -1.092216065146    4.690298989313   -1.286085235259
 H    0.610173934854    4.103988989313   -1.366535235259
 H   -0.057116065146    4.720338989313    0.192814764741
 C   -4.053876065146    1.283018989313    0.181884764741
 H   -4.361326065146    0.280098989313   -0.150925235259
 H   -4.523386065146    2.049648989313   -0.452435235259
 H   -4.335556065146    1.435358989313    1.234834764741
RB   -0.060236065146    0.066668989313   -0.036195235259
 P    2.054057694613   -2.273345035677    1.234275646066
 O    0.737914425984   -2.901565196372    0.376033559857
 O    2.663385682748   -1.420892217502   -0.094732012174
 O    3.011635512584   -3.395999190228    1.620581822303
 O    1.509912553839   -1.250460278533    2.228456311475
 C    0.329807850744   -4.222967347782    0.760748555008
 H    1.133120195804   -4.735590276499    1.310669514900
 H   -0.569269925859   -4.149275272469    1.391123760783
 H    0.098028362442   -4.765632627742   -0.168230973953
 C    4.094790688101   -1.328309416426   -0.157301279357
 H    4.402247265212   -0.325388008674    0.175510038757
 H    4.564299429946   -2.094941962093    0.477020515047
 H    4.376468368718   -1.480644394056   -1.210252400603
