27

 P   -2.036345593460    2.253746347807   -1.223631750381
 O   -2.993925593460    3.376396347807   -1.609941750381
 O   -1.492205593460    1.230856347807   -2.217811750381
 O   -0.720205593460    2.881966347807   -0.365391750381
 O   -2.645675593460    1.401296347807    0.105368249619
 C   -0.312105593460    4.203366347807   -0.750111750381
 H   -1.115425593460    4.715986347807   -1.300031750381
 H    0.586964406540    4.129676347807   -1.380481750381
 H   -0.080325593460    4.746026347807    0.178868249619
 C   -4.077085593460    1.308706347807    0.167938249619
 H   -4.384535593460    0.305786347807   -0.164871750381
 H   -4.546595593460    2.075336347807   -0.466381750381
 H   -4.358765593460    1.461046347807    1.220888249619
RB   -0.083445593460    0.092356347807   -0.050141750381
 P    2.093033276880   -2.316481619095    1.257695921571
 O    0.776890008251   -2.944701779789    0.399453835362
 O    2.702361265015   -1.464028800920   -0.071311736668
 O    3.050611094851   -3.439135773646    1.644002097809
 O    1.548888136106   -1.293596861950    2.251876586981
 C    0.368783433011   -4.266103931200    0.784168830514
 H    1.172095778071   -4.778726859916    1.334089790405
 H   -0.530294343592   -4.192411855886    1.414544036289
 H    0.137003944709   -4.808769211159   -0.144810698448
 C    4.133766270368   -1.371445999843   -0.133881003851
 H    4.441222847479   -0.368524592092    0.198930314262
 H    4.603275012213   -2.138078545511    0.500440790552
 H    4.415443950985   -1.523780977474   -1.186832125097
