27

 P   -2.338069461543    2.587682008228   -1.404936446964
 O   -3.295649461543    3.710332008228   -1.791246446964
 O   -1.793929461543    1.564792008228   -2.399116446964
 O   -1.021929461543    3.215902008228   -0.546696446964
 O   -2.947399461543    1.735232008228   -0.075936446964
 C   -0.613829461543    4.537302008228   -0.931416446964
 H   -1.417149461543    5.049922008228   -1.481336446964
 H    0.285240538457    4.463612008228   -1.561786446964
 H   -0.382049461543    5.079962008228   -0.002436446964
 C   -4.378809461543    1.642642008228   -0.013366446964
 H   -4.686259461543    0.639722008228   -0.346176446964
 H   -4.848319461543    2.409272008228   -0.647686446964
 H   -4.660489461543    1.794982008228    1.039583553036
RB   -0.385169461543    0.426292008228   -0.231446446964
 P    2.599715846351   -2.877257203523    1.562159503142
 O    1.283572577722   -3.505477364218    0.703917416933
 O    3.209043834487   -2.024804385348    0.233151844902
 O    3.557293664322   -3.999911358074    1.948465679379
 O    2.055570705578   -1.854372446379    2.556340168551
 C    0.875466002482   -4.826879515628    1.088632412084
 H    1.678778347542   -5.339502444345    1.638553371976
 H   -0.023611774120   -4.753187440315    1.719007617859
 H    0.643686514181   -5.369544795587    0.159652883123
 C    4.640448839840   -1.932221584272    0.170582577719
 H    4.947905416950   -0.929300176520    0.503393895833
 H    5.109957581684   -2.698854129939    0.804904372123
 H    4.922126520456   -2.084556561902   -0.882368543527
