27

 P   -2.454117103114    2.716118800698   -1.474669022573
 O   -3.411697103114    3.838768800698   -1.860979022573
 O   -1.909977103114    1.693228800698   -2.468849022573
 O   -1.137977103114    3.344338800698   -0.616429022573
 O   -3.063447103114    1.863668800698   -0.145669022573
 C   -0.729877103114    4.665738800698   -1.001149022573
 H   -1.533197103114    5.178358800698   -1.551069022573
 H    0.169192896886    4.592048800698   -1.631519022573
 H   -0.498097103114    5.208398800698   -0.072169022573
 C   -4.494857103114    1.771078800698   -0.083099022573
 H   -4.802307103114    0.768158800698   -0.415909022573
 H   -4.964367103114    2.537708800698   -0.717419022573
 H   -4.776537103114    1.923418800698    0.969850977427
RB   -0.501217103114    0.554728800698   -0.301179022573
 P    2.794593757686   -3.092940120611    1.679260880669
 O    1.478450489057   -3.721160281305    0.821018794460
 O    3.403921745822   -2.240487302436    0.350253222429
 O    3.752171575657   -4.215594275162    2.065567056906
 O    2.250448616913   -2.070055363466    2.673441546078
 C    1.070343913817   -5.042562432716    1.205733789611
 H    1.873656258877   -5.555185361432    1.755654749503
 H    0.171266137215   -4.968870357402    1.836108995386
 H    0.838564425516   -5.585227712675    0.276754260650
 C    4.835326751175   -2.147904501360    0.287683955246
 H    5.142783328285   -1.144983093608    0.620495273360
 H    5.304835493019   -2.914537047027    0.922005749650
 H    5.117004431792   -2.300239478990   -0.765267165999
