27

 P   -2.523745688056    2.793180876180   -1.516508567938
 O   -3.481325688056    3.915830876180   -1.902818567938
 O   -1.979605688056    1.770290876180   -2.510688567938
 O   -1.207605688056    3.421400876180   -0.658268567938
 O   -3.133075688056    1.940730876180   -0.187508567938
 C   -0.799505688056    4.742800876180   -1.042988567938
 H   -1.602825688056    5.255420876180   -1.592908567938
 H    0.099564311944    4.669110876180   -1.673358567938
 H   -0.567725688056    5.285460876180   -0.114008567938
 C   -4.564485688056    1.848140876180   -0.124938567938
 H   -4.871935688056    0.845220876180   -0.457748567938
 H   -5.033995688056    2.614770876180   -0.759258567938
 H   -4.846165688056    2.000480876180    0.928011432062
RB   -0.570845688056    0.631790876180   -0.343018567938
 P    2.911520504487   -3.222349870863    1.749521707185
 O    1.595377235858   -3.850570031558    0.891279620976
 O    3.520848492623   -2.369897052688    0.420514048945
 O    3.869098322459   -4.345004025414    2.135827883423
 O    2.367375363714   -2.199465113719    2.743702372595
 C    1.187270660618   -5.171972182968    1.275994616128
 H    1.990583005678   -5.684595111685    1.825915576019
 H    0.288192884016   -5.098280107655    1.906369821903
 H    0.955491172317   -5.714637462928    0.347015087166
 C    4.952253497976   -2.277314251612    0.357944781763
 H    5.259710075086   -1.274392843860    0.690756099876
 H    5.421762239820   -3.043946797280    0.992266576166
 H    5.233931178593   -2.429649229242   -0.695006339483
