27

 P   -2.546955216370    2.818868234674   -1.530455083060
 O   -3.504535216370    3.941518234674   -1.916765083060
 O   -2.002815216370    1.795978234674   -2.524635083060
 O   -1.230815216370    3.447088234674   -0.672215083060
 O   -3.156285216370    1.966418234674   -0.201455083060
 C   -0.822715216370    4.768488234674   -1.056935083060
 H   -1.626035216370    5.281108234674   -1.606855083060
 H    0.076354783630    4.694798234674   -1.687305083060
 H   -0.590935216370    5.311148234674   -0.127955083060
 C   -4.587695216370    1.873828234674   -0.138885083060
 H   -4.895145216370    0.870908234674   -0.471695083060
 H   -5.057205216370    2.640458234674   -0.773205083060
 H   -4.869375216370    2.026168234674    0.914064916940
RB   -0.594055216370    0.657478234674   -0.356965083060
 P    2.950496086754   -3.265486454281    1.772941982690
 O    1.634352818126   -3.893706614976    0.914699896482
 O    3.559824074890   -2.413033636106    0.443934324451
 O    3.908073904726   -4.388140608832    2.159248158928
 O    2.406350945981   -2.242601697137    2.767122648100
 C    1.226246242885   -5.215108766386    1.299414891633
 H    2.029558587945   -5.727731695103    1.849335851525
 H    0.327168466283   -5.141416691073    1.929790097408
 H    0.994466754584   -5.757774046345    0.370435362672
 C    4.991229080243   -2.320450835030    0.381365057268
 H    5.298685657353   -1.317529427278    0.714176375381
 H    5.460737822087   -3.087083380697    1.015686851671
 H    5.272906760860   -2.472785812660   -0.671586063978
