27

 P   -2.570164744684    2.844555593168   -1.544401598181
 O   -3.527744744684    3.967205593168   -1.930711598181
 O   -2.026024744684    1.821665593168   -2.538581598181
 O   -1.254024744684    3.472775593168   -0.686161598181
 O   -3.179494744684    1.992105593168   -0.215401598181
 C   -0.845924744684    4.794175593168   -1.070881598181
 H   -1.649244744684    5.306795593168   -1.620801598181
 H    0.053145255316    4.720485593168   -1.701251598181
 H   -0.614144744684    5.336835593168   -0.141901598181
 C   -4.610904744684    1.899515593168   -0.152831598181
 H   -4.918354744684    0.896595593168   -0.485641598181
 H   -5.080414744684    2.666145593168   -0.787151598181
 H   -4.892584744684    2.051855593168    0.900118401819
RB   -0.617264744684    0.683165593168   -0.370911598181
 P    2.989471669021   -3.308623037699    1.796362258196
 O    1.673328400393   -3.936843198393    0.938120171987
 O    3.598799657157   -2.456170219523    0.467354599956
 O    3.947049486993   -4.431277192249    2.182668434433
 O    2.445326528248   -2.285738280554    2.790542923605
 C    1.265221825152   -5.258245349803    1.322835167138
 H    2.068534170212   -5.770868278520    1.872756127030
 H    0.366144048550   -5.184553274490    1.953210372914
 H    1.033442336851   -5.800910629763    0.393855638177
 C    5.030204662510   -2.363587418447    0.404785332773
 H    5.337661239621   -1.360666010695    0.737596650887
 H    5.499713404354   -3.130219964115    1.039107127177
 H    5.311882343127   -2.515922396077   -0.648165788472
