27

 P   -2.593374272998    2.870242951662   -1.558348113303
 O   -3.550954272998    3.992892951662   -1.944658113303
 O   -2.049234272998    1.847352951662   -2.552528113303
 O   -1.277234272998    3.498462951662   -0.700108113303
 O   -3.202704272998    2.017792951662   -0.229348113303
 C   -0.869134272998    4.819862951662   -1.084828113303
 H   -1.672454272998    5.332482951662   -1.634748113303
 H    0.029935727002    4.746172951662   -1.715198113303
 H   -0.637354272998    5.362522951662   -0.155848113303
 C   -4.634114272998    1.925202951662   -0.166778113303
 H   -4.941564272998    0.922282951662   -0.499588113303
 H   -5.103624272998    2.691832951662   -0.801098113303
 H   -4.915794272998    2.077542951662    0.886171886697
RB   -0.640474272998    0.708852951662   -0.384858113303
 P    3.028447251288   -3.351759621116    1.819782533701
 O    1.712303982660   -3.979979781811    0.961540447493
 O    3.637775239424   -2.499306802941    0.490774875462
 O    3.986025069260   -4.474413775667    2.206088709939
 O    2.484302110515   -2.328874863972    2.813963199111
 C    1.304197407419   -5.301381933221    1.346255442644
 H    2.107509752479   -5.814004861938    1.896176402536
 H    0.405119630817   -5.227689857908    1.976630648419
 H    1.072417919118   -5.844047213181    0.417275913683
 C    5.069180244777   -2.406724001865    0.428205608279
 H    5.376636821888   -1.403802594113    0.761016926392
 H    5.538688986621   -3.173356547532    1.062527402682
 H    5.350857925394   -2.559058979495   -0.624745512967
