27

 P   -2.616583801312    2.895930310156   -1.572294628425
 O   -3.574163801312    4.018580310156   -1.958604628425
 O   -2.072443801312    1.873040310156   -2.566474628425
 O   -1.300443801312    3.524150310156   -0.714054628425
 O   -3.225913801312    2.043480310156   -0.243294628425
 C   -0.892343801312    4.845550310156   -1.098774628425
 H   -1.695663801312    5.358170310156   -1.648694628425
 H    0.006726198688    4.771860310156   -1.729144628425
 H   -0.660563801312    5.388210310156   -0.169794628425
 C   -4.657323801312    1.950890310156   -0.180724628425
 H   -4.964773801312    0.947970310156   -0.513534628425
 H   -5.126833801312    2.717520310156   -0.815044628425
 H   -4.939003801312    2.103230310156    0.872225371575
RB   -0.663683801312    0.734540310156   -0.398804628425
 P    3.067422833555   -3.394896204534    1.843202809207
 O    1.751279564927   -4.023116365228    0.984960722998
 O    3.676750821691   -2.542443386359    0.514195150967
 O    4.025000651527   -4.517550359084    2.229508985444
 O    2.523277692782   -2.372011447389    2.837383474616
 C    1.343172989686   -5.344518516639    1.369675718149
 H    2.146485334746   -5.857141445355    1.919596678041
 H    0.444095213084   -5.270826441325    2.000050923924
 H    1.111393501385   -5.887183796598    0.440696189188
 C    5.108155827044   -2.449860585282    0.451625883784
 H    5.415612404155   -1.446939177530    0.784437201898
 H    5.577664568889   -3.216493130950    1.085947678188
 H    5.389833507661   -2.602195562913   -0.601325237462
