27

 P   -2.755840971197    3.050054461119   -1.655973719156
 O   -3.713420971197    4.172704461119   -2.042283719156
 O   -2.211700971197    2.027164461119   -2.650153719156
 O   -1.439700971197    3.678274461119   -0.797733719156
 O   -3.365170971197    2.197604461119   -0.326973719156
 C   -1.031600971197    4.999674461119   -1.182453719156
 H   -1.834920971197    5.512294461119   -1.732373719156
 H   -0.132530971197    4.925984461119   -1.812823719156
 H   -0.799820971197    5.542334461119   -0.253473719156
 C   -4.796580971197    2.105014461119   -0.264403719156
 H   -5.104030971197    1.102094461119   -0.597213719156
 H   -5.266090971197    2.871644461119   -0.898723719156
 H   -5.078260971197    2.257354461119    0.788546280844
RB   -0.802940971197    0.888664461119   -0.482483719156
 P    3.301276327158   -3.653715705039    1.983724462239
 O    1.985133058529   -4.281935865734    1.125482376031
 O    3.910604315294   -2.801262886864    0.654716804000
 O    4.258854145129   -4.776369859590    2.370030638477
 O    2.757131186384   -2.630830947895    2.977905127649
 C    1.577026483289   -5.603338017144    1.510197371182
 H    2.380338828349   -6.115960945861    2.060118331073
 H    0.677948706686   -5.529645941831    2.140572576957
 H    1.345246994987   -6.146003297103    0.581217842221
 C    5.342009320646   -2.708680085788    0.592147536817
 H    5.649465897757   -1.705758678036    0.924958854930
 H    5.811518062491   -3.475312631455    1.226469331220
 H    5.623687001263   -2.861015063418   -0.460803584429
