27

 P   -2.779050499511    3.075741819613   -1.669920234277
 O   -3.736630499511    4.198391819613   -2.056230234277
 O   -2.234910499511    2.052851819613   -2.664100234277
 O   -1.462910499511    3.703961819613   -0.811680234277
 O   -3.388380499511    2.223291819613   -0.340920234277
 C   -1.054810499511    5.025361819613   -1.196400234277
 H   -1.858130499511    5.537981819613   -1.746320234277
 H   -0.155740499511    4.951671819613   -1.826770234277
 H   -0.823030499511    5.568021819613   -0.267420234277
 C   -4.819790499511    2.130701819613   -0.278350234277
 H   -5.127240499511    1.127781819613   -0.611160234277
 H   -5.289300499511    2.897331819613   -0.912670234277
 H   -5.101470499511    2.283041819613    0.774599765723
RB   -0.826150499511    0.914351819613   -0.496430234277
 P    3.340251909425   -3.696852288457    2.007144737745
 O    2.024108640796   -4.325072449151    1.148902651536
 O    3.949579897561   -2.844399470281    0.678137079505
 O    4.297829727396   -4.819506443007    2.393450913982
 O    2.796106768651   -2.673967531312    3.001325403154
 C    1.616002065556   -5.646474600561    1.533617646687
 H    2.419314410616   -6.159097529278    2.083538606579
 H    0.716924288953   -5.572782525248    2.163992852462
 H    1.384222577254   -6.189139880521    0.604638117726
 C    5.380984902913   -2.751816669205    0.615567812322
 H    5.688441480024   -1.748895261453    0.948379130436
 H    5.850493644758   -3.518449214873    1.249889606726
 H    5.662662583530   -2.904151646835   -0.437383308924
