27

 P   -2.802260027825    3.101429178107   -1.683866749399
 O   -3.759840027825    4.224079178107   -2.070176749399
 O   -2.258120027825    2.078539178107   -2.678046749399
 O   -1.486120027825    3.729649178107   -0.825626749399
 O   -3.411590027825    2.248979178107   -0.354866749399
 C   -1.078020027825    5.051049178107   -1.210346749399
 H   -1.881340027825    5.563669178107   -1.760266749399
 H   -0.178950027825    4.977359178107   -1.840716749399
 H   -0.846240027825    5.593709178107   -0.281366749399
 C   -4.843000027825    2.156389178107   -0.292296749399
 H   -5.150450027825    1.153469178107   -0.625106749399
 H   -5.312510027825    2.923019178107   -0.926616749399
 H   -5.124680027825    2.308729178107    0.760653250601
RB   -0.849360027825    0.940039178107   -0.510376749399
 P    3.379227491692   -3.739988871874    2.030565013250
 O    2.063084223063   -4.368209032569    1.172322927041
 O    3.988555479828   -2.887536053699    0.701557355011
 O    4.336805309663   -4.862643026425    2.416871189488
 O    2.835082350918   -2.717104114730    3.024745678660
 C    1.654977647823   -5.689611183979    1.557037922193
 H    2.458289992883   -6.202234112696    2.106958882084
 H    0.755899871220   -5.615919108666    2.187413127968
 H    1.423198159521   -6.232276463939    0.628058393231
 C    5.419960485180   -2.794953252623    0.638988087828
 H    5.727417062291   -1.792031844871    0.971799405941
 H    5.889469227025   -3.561585798290    1.273309882231
 H    5.701638165797   -2.947288230253   -0.413963033418
