27

 P   -2.895098141081    3.204178612083   -1.739652809886
 O   -3.852678141081    4.326828612083   -2.125962809886
 O   -2.350958141081    2.181288612083   -2.733832809886
 O   -1.578958141081    3.832398612083   -0.881412809886
 O   -3.504428141081    2.351728612083   -0.410652809886
 C   -1.170858141081    5.153798612083   -1.266132809886
 H   -1.974178141081    5.666418612083   -1.816052809886
 H   -0.271788141081    5.080108612083   -1.896502809886
 H   -0.939078141081    5.696458612083   -0.337152809886
 C   -4.935838141081    2.259138612083   -0.348082809886
 H   -5.243288141081    1.256218612083   -0.680892809886
 H   -5.405348141081    3.025768612083   -0.982402809886
 H   -5.217518141081    2.411478612083    0.704867190114
RB   -0.942198141081    1.042788612083   -0.566162809886
 P    3.535129820760   -3.912535205544    2.124246115272
 O    2.218986552131   -4.540755366239    1.266004029063
 O    4.144457808896   -3.060082387369    0.795238457032
 O    4.492707638731   -5.035189360095    2.510552291509
 O    2.990984679986   -2.889650448400    3.118426780681
 C    1.810879976891   -5.862157517649    1.650719024214
 H    2.614192321951   -6.374780446366    2.200639984106
 H    0.911802200289   -5.788465442336    2.281094229989
 H    1.579100488589   -6.404822797609    0.721739495253
 C    5.575862814249   -2.967499586293    0.732669189849
 H    5.883319391359   -1.964578178541    1.065480507963
 H    6.045371556093   -3.734132131961    1.366990984253
 H    5.857540494865   -3.119834563923   -0.320281931396
