27

 P   -2.941517197710    3.255553329071   -1.767545840130
 O   -3.899097197710    4.378203329071   -2.153855840130
 O   -2.397377197710    2.232663329071   -2.761725840130
 O   -1.625377197710    3.883773329071   -0.909305840130
 O   -3.550847197710    2.403103329071   -0.438545840130
 C   -1.217277197710    5.205173329071   -1.294025840130
 H   -2.020597197710    5.717793329071   -1.843945840130
 H   -0.318207197710    5.131483329071   -1.924395840130
 H   -0.985497197710    5.747833329071   -0.365045840130
 C   -4.982257197710    2.310513329071   -0.375975840130
 H   -5.289707197710    1.307593329071   -0.708785840130
 H   -5.451767197710    3.077143329071   -1.010295840130
 H   -5.263937197710    2.462853329071    0.676974159870
RB   -0.988617197710    1.094163329071   -0.594055840130
 P    3.613080985294   -3.998808372380    2.171086666283
 O    2.296937716665   -4.627028533074    1.312844580074
 O    4.222408973430   -3.146355554204    0.842079008043
 O    4.570658803265   -5.121462526930    2.557392842520
 O    3.068935844521   -2.975923615235    3.165267331692
 C    1.888831141425   -5.948430684484    1.697559575225
 H    2.692143486485   -6.461053613201    2.247480535117
 H    0.989753364823   -5.874738609171    2.327934781000
 H    1.657051653123   -6.491095964444    0.768580046264
 C    5.653813978783   -3.053772753128    0.779509740860
 H    5.961270555893   -2.050851345376    1.112321058974
 H    6.123322720627   -3.820405298796    1.413831535264
 H    5.935491659399   -3.206107730758   -0.273441380386
