27

 P   -2.987936254338    3.306928046059   -1.795438870373
 O   -3.945516254338    4.429578046059   -2.181748870373
 O   -2.443796254338    2.284038046059   -2.789618870373
 O   -1.671796254338    3.935148046059   -0.937198870373
 O   -3.597266254338    2.454478046059   -0.466438870373
 C   -1.263696254338    5.256548046059   -1.321918870373
 H   -2.067016254338    5.769168046059   -1.871838870373
 H   -0.364626254338    5.182858046059   -1.952288870373
 H   -1.031916254338    5.799208046059   -0.392938870373
 C   -5.028676254338    2.361888046059   -0.403868870373
 H   -5.336126254338    1.358968046059   -0.736678870373
 H   -5.498186254338    3.128518046059   -1.038188870373
 H   -5.310356254338    2.514228046059    0.649081129627
RB   -1.035036254338    1.145538046059   -0.621948870373
 P    3.691032149828   -4.085081539215    2.217927217294
 O    2.374888881199   -4.713301699909    1.359685131085
 O    4.300360137964   -3.232628721039    0.888919559054
 O    4.648609967799   -5.207735693765    2.604233393531
 O    3.146887009055   -3.062196782070    3.212107882703
 C    1.966782305959   -6.034703851319    1.744400126236
 H    2.770094651019   -6.547326780036    2.294321086128
 H    1.067704529357   -5.961011776006    2.374775332011
 H    1.735002817658   -6.577369131279    0.815420597275
 C    5.731765143317   -3.140045919963    0.826350291871
 H    6.039221720427   -2.137124512211    1.159161609984
 H    6.201273885161   -3.906678465631    1.460672086274
 H    6.013442823933   -3.292380897593   -0.226600829375
