27

 P   -3.057564839280    3.383990121540   -1.837278415739
 O   -4.015144839280    4.506640121540   -2.223588415739
 O   -2.513424839280    2.361100121540   -2.831458415739
 O   -1.741424839280    4.012210121540   -0.979038415739
 O   -3.666894839280    2.531540121540   -0.508278415739
 C   -1.333324839280    5.333610121540   -1.363758415739
 H   -2.136644839280    5.846230121540   -1.913678415739
 H   -0.434254839280    5.259920121540   -1.994128415739
 H   -1.101544839280    5.876270121540   -0.434778415739
 C   -5.098304839280    2.438950121540   -0.445708415739
 H   -5.405754839280    1.436030121540   -0.778518415739
 H   -5.567814839280    3.205580121540   -1.080028415739
 H   -5.379984839280    2.591290121540    0.607241584261
RB   -1.104664839280    1.222600121540   -0.663788415739
 P    3.807958896629   -4.214491289467    2.288188043810
 O    2.491815628000   -4.842711450162    1.429945957601
 O    4.417286884765   -3.362038471292    0.959180385570
 O    4.765536714600   -5.337145444018    2.674494220047
 O    3.263813755856   -3.191606532323    3.282368709219
 C    2.083709052760   -6.164113601572    1.814660952752
 H    2.887021397820   -6.676736530289    2.364581912644
 H    1.184631276158   -6.090421526259    2.445036158527
 H    1.851929564459   -6.706778881532    0.885681423791
 C    5.848691890118   -3.269455670216    0.896611118387
 H    6.156148467228   -2.266534262464    1.229422436501
 H    6.318200631962   -4.036088215884    1.530932912791
 H    6.130369570735   -3.421790647846   -0.156340002858
