27

 P   -3.103983895908    3.435364838528   -1.865171445982
 O   -4.061563895908    4.558014838528   -2.251481445982
 O   -2.559843895908    2.412474838528   -2.859351445982
 O   -1.787843895908    4.063584838528   -1.006931445982
 O   -3.713313895908    2.582914838528   -0.536171445982
 C   -1.379743895908    5.384984838528   -1.391651445982
 H   -2.183063895908    5.897604838528   -1.941571445982
 H   -0.480673895908    5.311294838528   -2.022021445982
 H   -1.147963895908    5.927644838528   -0.462671445982
 C   -5.144723895908    2.490324838528   -0.473601445982
 H   -5.452173895908    1.487404838528   -0.806411445982
 H   -5.614233895908    3.256954838528   -1.107921445982
 H   -5.426403895908    2.642664838528    0.579348554018
RB   -1.151083895908    1.273974838528   -0.691681445982
 P    3.885910061163   -4.300764456302    2.335028594821
 O    2.569766792534   -4.928984616997    1.476786508612
 O    4.495238049299   -3.448311638127    1.006020936581
 O    4.843487879134   -5.423418610853    2.721334771058
 O    3.341764920390   -3.277879699158    3.329209260230
 C    2.161660217294   -6.250386768407    1.861501503763
 H    2.964972562354   -6.763009697124    2.411422463655
 H    1.262582440692   -6.176694693094    2.491876709538
 H    1.929880728993   -6.793052048367    0.932521974802
 C    5.926643054652   -3.355728837051    0.943451669398
 H    6.234099631762   -2.352807429299    1.276262987512
 H    6.396151796496   -4.122361382719    1.577773463802
 H    6.208320735269   -3.508063814681   -0.109499451848
