27

 P   -3.243241065793    3.589488989492   -1.948850536713
 O   -4.200821065793    4.712138989492   -2.335160536713
 O   -2.699101065793    2.566598989492   -2.943030536713
 O   -1.927101065793    4.217708989492   -1.090610536713
 O   -3.852571065793    2.737038989492   -0.619850536713
 C   -1.519001065793    5.539108989492   -1.475330536713
 H   -2.322321065793    6.051728989492   -2.025250536713
 H   -0.619931065793    5.465418989492   -2.105700536713
 H   -1.287221065793    6.081768989492   -0.546350536713
 C   -5.283981065793    2.644448989492   -0.557280536713
 H   -5.591431065793    1.641528989492   -0.890090536713
 H   -5.753491065793    3.411078989492   -1.191600536713
 H   -5.565661065793    2.796788989492    0.495669463287
RB   -1.290341065793    1.428098989492   -0.775360536713
 P    4.119763554765   -4.559583956808    2.475550247853
 O    2.803620286137   -5.187804117502    1.617308161644
 O    4.729091542901   -3.707131138633    1.146542589614
 O    5.077341372737   -5.682238111359    2.861856424091
 O    3.575618413992   -3.536699199663    3.469730913263
 C    2.395513710896   -6.509206268913    2.002023156796
 H    3.198826055956   -7.021829197629    2.551944116687
 H    1.496435934294   -6.435514193599    2.632398362571
 H    2.163734222595   -7.051871548872    1.073043627834
 C    6.160496548254   -3.614548337556    1.083973322431
 H    6.467953125365   -2.611626929805    1.416784640544
 H    6.630005290098   -4.381180883224    1.718295116834
 H    6.442174228871   -3.766883315187    0.031022201185
