27

 P   -3.359288707363    3.717925781961   -2.018583112322
 O   -4.316868707363    4.840575781961   -2.404893112322
 O   -2.815148707363    2.695035781961   -3.012763112322
 O   -2.043148707363    4.346145781961   -1.160343112322
 O   -3.968618707363    2.865475781961   -0.689583112322
 C   -1.635048707363    5.667545781961   -1.545063112322
 H   -2.438368707363    6.180165781961   -2.094983112322
 H   -0.735978707363    5.593855781961   -2.175433112322
 H   -1.403268707363    6.210205781961   -0.616083112322
 C   -5.400028707363    2.772885781961   -0.627013112322
 H   -5.707478707363    1.769965781961   -0.959823112322
 H   -5.869538707363    3.539515781961   -1.261333112322
 H   -5.681708707363    2.925225781961    0.425936887678
RB   -1.406388707363    1.556535781961   -0.845093112322
 P    4.314641466101   -4.775266873896    2.592651625380
 O    2.998498197472   -5.403487034590    1.734409539172
 O    4.923969454236   -3.922814055720    1.263643967141
 O    5.272219284072   -5.897921028446    2.978957801618
 O    3.770496325327   -3.752382116751    3.586832290790
 C    2.590391622232   -6.724889186000    2.119124534323
 H    3.393703967292   -7.237512114717    2.669045494215
 H    1.691313845629   -6.651197110687    2.749499740098
 H    2.358612133930   -7.267554465960    1.190145005362
 C    6.355374459589   -3.830231254644    1.201074699958
 H    6.662831036700   -2.827309846892    1.533886018071
 H    6.824883201434   -4.596863800312    1.835396494361
 H    6.637052140206   -3.982566232274    0.148123578712
