27

 P   -3.382498235677    3.743613140455   -2.032529627443
 O   -4.340078235677    4.866263140455   -2.418839627443
 O   -2.838358235677    2.720723140455   -3.026709627443
 O   -2.066358235677    4.371833140455   -1.174289627443
 O   -3.991828235677    2.891163140455   -0.703529627443
 C   -1.658258235677    5.693233140455   -1.559009627443
 H   -2.461578235677    6.205853140455   -2.108929627443
 H   -0.759188235677    5.619543140455   -2.189379627443
 H   -1.426478235677    6.235893140455   -0.630029627443
 C   -5.423238235677    2.798573140455   -0.640959627443
 H   -5.730688235677    1.795653140455   -0.973769627443
 H   -5.892748235677    3.565203140455   -1.275279627443
 H   -5.704918235677    2.950913140455    0.411990372557
RB   -1.429598235677    1.582223140455   -0.859039627443
 P    4.353617048368   -4.818403457313    2.616071900886
 O    3.037473779739   -5.446623618008    1.757829814677
 O    4.962945036504   -3.965950639138    1.287064242646
 O    5.311194866339   -5.941057611864    3.002378077123
 O    3.809471907594   -3.795518700169    3.610252566295
 C    2.629367204499   -6.768025769418    2.142544809828
 H    3.432679549559   -7.280648698135    2.692465769720
 H    1.730289427896   -6.694333694105    2.772920015603
 H    2.397587716197   -7.310691049377    1.213565280867
 C    6.394350041856   -3.873367838062    1.224494975463
 H    6.701806618967   -2.870446430310    1.557306293577
 H    6.863858783701   -4.640000383729    1.858816769867
 H    6.676027722473   -4.025702815692    0.171543854217
