27

 P   -3.498545877248    3.872049932925   -2.102262203052
 O   -4.456125877248    4.994699932925   -2.488572203052
 O   -2.954405877248    2.849159932925   -3.096442203052
 O   -2.182405877248    4.500269932925   -1.244022203052
 O   -4.107875877248    3.019599932925   -0.773262203052
 C   -1.774305877248    5.821669932925   -1.628742203052
 H   -2.577625877248    6.334289932925   -2.178662203052
 H   -0.875235877248    5.747979932925   -2.259112203052
 H   -1.542525877248    6.364329932925   -0.699762203052
 C   -5.539285877248    2.927009932925   -0.710692203052
 H   -5.846735877248    1.924089932925   -1.043502203052
 H   -6.008795877248    3.693639932925   -1.345012203052
 H   -5.820965877248    3.079349932925    0.342257796948
RB   -1.545645877248    1.710659932925   -0.928772203052
 P    4.548494959703   -5.034086374401    2.733173278413
 O    3.232351691074   -5.662306535096    1.874931192204
 O    5.157822947839   -4.181633556226    1.404165620173
 O    5.506072777674   -6.156740528952    3.119479454650
 O    4.004349818929   -4.011201617256    3.727353943822
 C    2.824245115834   -6.983708686506    2.259646187355
 H    3.627557460894   -7.496331615222    2.809567147247
 H    1.925167339232   -6.910016611192    2.890021393130
 H    2.592465627532   -7.526373966465    1.330666658394
 C    6.589227953192   -4.089050755150    1.341596352990
 H    6.896684530302   -3.086129347398    1.674407671104
 H    7.058736695036   -4.855683300817    1.975918147394
 H    6.870905633808   -4.241385732780    0.288645231745
