12

 C   -2.094138052833    0.425486684526    0.000000000000
 C   -0.981796052833   -0.593991315474    0.000000000000
 O   -1.486127052833   -1.860444315474    0.000000000000
 C   -0.471661052833   -2.894183315474    0.000000000000
 O    0.215843947167   -0.349498315474    0.000000000000
 H   -1.661568052833    1.432496684526    0.000000000000
 H   -2.726475052833    0.282914684526    0.888615000000
 H   -2.726475052833    0.282914684526   -0.888615000000
 H   -1.025758052833   -3.839307315474    0.000000000000
 H    0.158133947167   -2.807884315474    0.896190000000
 H    0.158133947167   -2.807884315474   -0.896190000000
CS    0.532517230180    0.599036360658    0.000000000000
