12

 C   -2.114475905344    0.364568509930    0.000000000000
 C   -1.002133905344   -0.654909490070    0.000000000000
 O   -1.506464905344   -1.921362490070    0.000000000000
 C   -0.491998905344   -2.955101490070    0.000000000000
 O    0.195506094656   -0.410416490070    0.000000000000
 H   -1.681905905344    1.371578509930    0.000000000000
 H   -2.746812905344    0.221996509930    0.888615000000
 H   -2.746812905344    0.221996509930   -0.888615000000
 H   -1.046095905344   -3.900225490070    0.000000000000
 H    0.137796094656   -2.868802490070    0.896190000000
 H    0.137796094656   -2.868802490070   -0.896190000000
CS    0.543846705971    0.632971653676    0.000000000000
