12

 C   -2.175489462876    0.181813986144    0.000000000000
 C   -1.063147462876   -0.837664013856    0.000000000000
 O   -1.567478462876   -2.104117013856    0.000000000000
 C   -0.553012462876   -3.137856013856    0.000000000000
 O    0.134492537124   -0.593171013856    0.000000000000
 H   -1.742919462876    1.188823986144    0.000000000000
 H   -2.807826462876    0.039241986144    0.888615000000
 H   -2.807826462876    0.039241986144   -0.888615000000
 H   -1.107109462876   -4.082980013856    0.000000000000
 H    0.076782537124   -3.051557013856    0.896190000000
 H    0.076782537124   -3.051557013856   -0.896190000000
CS    0.577835133343    0.734777532729    0.000000000000
