12

 C   -2.256840872918   -0.061858712238    0.000000000000
 C   -1.144498872918   -1.081336712238    0.000000000000
 O   -1.648829872918   -2.347789712238    0.000000000000
 C   -0.634363872918   -3.381528712238    0.000000000000
 O    0.053141127082   -0.836843712238    0.000000000000
 H   -1.824270872918    0.945151287762    0.000000000000
 H   -2.889177872918   -0.204430712238    0.888615000000
 H   -2.889177872918   -0.204430712238   -0.888615000000
 H   -1.188460872918   -4.326652712238    0.000000000000
 H   -0.004568872918   -3.295229712238    0.896190000000
 H   -0.004568872918   -3.295229712238   -0.896190000000
CS    0.623153036506    0.870518704800    0.000000000000
