12

 C   -2.338192282960   -0.305531410620    0.000000000000
 C   -1.225850282960   -1.325009410620    0.000000000000
 O   -1.730181282960   -2.591462410620    0.000000000000
 C   -0.715715282960   -3.625201410620    0.000000000000
 O   -0.028210282960   -1.080516410620    0.000000000000
 H   -1.905622282960    0.701478589380    0.000000000000
 H   -2.970529282960   -0.448103410620    0.888615000000
 H   -2.970529282960   -0.448103410620   -0.888615000000
 H   -1.269812282960   -4.570325410620    0.000000000000
 H   -0.085920282960   -3.538902410620    0.896190000000
 H   -0.085920282960   -3.538902410620   -0.896190000000
CS    0.668470939669    1.006259876871    0.000000000000
