12

 C   -2.358530135471   -0.366449585215    0.000000000000
 C   -1.246188135471   -1.385927585215    0.000000000000
 O   -1.750519135471   -2.652380585215    0.000000000000
 C   -0.736053135471   -3.686119585215    0.000000000000
 O   -0.048548135471   -1.141434585215    0.000000000000
 H   -1.925960135471    0.640560414785    0.000000000000
 H   -2.990867135471   -0.509021585215    0.888615000000
 H   -2.990867135471   -0.509021585215   -0.888615000000
 H   -1.290150135471   -4.631243585215    0.000000000000
 H   -0.106258135471   -3.599820585215    0.896190000000
 H   -0.106258135471   -3.599820585215   -0.896190000000
CS    0.679800415460    1.040195169889    0.000000000000
