12

 C   -2.419543693002   -0.549204109002    0.000000000000
 C   -1.307201693002   -1.568682109002    0.000000000000
 O   -1.811532693002   -2.835135109002    0.000000000000
 C   -0.797066693002   -3.868874109002    0.000000000000
 O   -0.109561693002   -1.324189109002    0.000000000000
 H   -1.986973693002    0.457805890998    0.000000000000
 H   -3.051880693002   -0.691776109002    0.888615000000
 H   -3.051880693002   -0.691776109002   -0.888615000000
 H   -1.351163693002   -4.813998109002    0.000000000000
 H   -0.167271693002   -3.782575109002    0.896190000000
 H   -0.167271693002   -3.782575109002   -0.896190000000
CS    0.713788842832    1.142001048942    0.000000000000
