12

 C   -2.439881545513   -0.610122283597    0.000000000000
 C   -1.327539545513   -1.629600283597    0.000000000000
 O   -1.831870545513   -2.896053283597    0.000000000000
 C   -0.817404545513   -3.929792283597    0.000000000000
 O   -0.129899545513   -1.385107283597    0.000000000000
 H   -2.007311545513    0.396887716403    0.000000000000
 H   -3.072218545513   -0.752694283597    0.888615000000
 H   -3.072218545513   -0.752694283597   -0.888615000000
 H   -1.371501545513   -4.874916283597    0.000000000000
 H   -0.187609545513   -3.843493283597    0.896190000000
 H   -0.187609545513   -3.843493283597   -0.896190000000
CS    0.725118318623    1.175936341960    0.000000000000
