12

 C   -2.582246513087   -1.036549505766    0.000000000000
 C   -1.469904513087   -2.056027505766    0.000000000000
 O   -1.974235513087   -3.322480505766    0.000000000000
 C   -0.959769513087   -4.356219505765    0.000000000000
 O   -0.272264513087   -1.811534505766    0.000000000000
 H   -2.149676513087   -0.029539505766    0.000000000000
 H   -3.214583513087   -1.179121505766    0.888615000000
 H   -3.214583513087   -1.179121505766   -0.888615000000
 H   -1.513866513087   -5.301343505766    0.000000000000
 H   -0.329974513087   -4.269920505766    0.896190000000
 H   -0.329974513087   -4.269920505766   -0.896190000000
CS    0.804424649159    1.413483393085    0.000000000000
