12

 C   -2.643260070618   -1.219304029552    0.000000000000
 C   -1.530918070618   -2.238782029552    0.000000000000
 O   -2.035249070618   -3.505235029552    0.000000000000
 C   -1.020783070618   -4.538974029552    0.000000000000
 O   -0.333278070618   -1.994289029552    0.000000000000
 H   -2.210690070618   -0.212294029552    0.000000000000
 H   -3.275597070618   -1.361876029552    0.888615000000
 H   -3.275597070618   -1.361876029552   -0.888615000000
 H   -1.574880070618   -5.484098029552    0.000000000000
 H   -0.390988070618   -4.452675029552    0.896190000000
 H   -0.390988070618   -4.452675029552   -0.896190000000
CS    0.838413076531    1.515289272138    0.000000000000
