12

 C   -2.724611480660   -1.462976727934    0.000000000000
 C   -1.612269480660   -2.482454727934    0.000000000000
 O   -2.116600480660   -3.748907727934    0.000000000000
 C   -1.102134480660   -4.782646727934    0.000000000000
 O   -0.414629480660   -2.237961727934    0.000000000000
 H   -2.292041480660   -0.455966727934    0.000000000000
 H   -3.356948480660   -1.605548727934    0.888615000000
 H   -3.356948480660   -1.605548727934   -0.888615000000
 H   -1.656231480660   -5.727770727934    0.000000000000
 H   -0.472339480660   -4.696347727934    0.896190000000
 H   -0.472339480660   -4.696347727934   -0.896190000000
CS    0.883730979694    1.651030444209    0.000000000000
