12

 C   -2.846638595724   -1.828485775507    0.000000000000
 C   -1.734296595724   -2.847963775507    0.000000000000
 O   -2.238627595724   -4.114416775507    0.000000000000
 C   -1.224161595724   -5.148155775507    0.000000000000
 O   -0.536656595724   -2.603470775507    0.000000000000
 H   -2.414068595724   -0.821475775507    0.000000000000
 H   -3.478975595724   -1.971057775507    0.888615000000
 H   -3.478975595724   -1.971057775507   -0.888615000000
 H   -1.778258595724   -6.093279775507    0.000000000000
 H   -0.594366595724   -5.061856775507    0.896190000000
 H   -0.594366595724   -5.061856775507   -0.896190000000
CS    0.951707834439    1.854642202316    0.000000000000
