12

 C   -2.866976448234   -1.889403950102    0.000000000000
 C   -1.754634448234   -2.908881950102    0.000000000000
 O   -2.258965448234   -4.175334950102    0.000000000000
 C   -1.244499448234   -5.209073950102    0.000000000000
 O   -0.556994448234   -2.664388950102    0.000000000000
 H   -2.434406448234   -0.882393950102    0.000000000000
 H   -3.499313448234   -2.031975950102    0.888615000000
 H   -3.499313448234   -2.031975950102   -0.888615000000
 H   -1.798596448234   -6.154197950102    0.000000000000
 H   -0.614704448234   -5.122774950102    0.896190000000
 H   -0.614704448234   -5.122774950102   -0.896190000000
CS    0.963037310229    1.888577495334    0.000000000000
