12

 C   -2.887314300745   -1.950322124697    0.000000000000
 C   -1.774972300745   -2.969800124697    0.000000000000
 O   -2.279303300745   -4.236253124697    0.000000000000
 C   -1.264837300745   -5.269992124697    0.000000000000
 O   -0.577332300745   -2.725307124697    0.000000000000
 H   -2.454744300745   -0.943312124697    0.000000000000
 H   -3.519651300745   -2.092894124697    0.888615000000
 H   -3.519651300745   -2.092894124697   -0.888615000000
 H   -1.818934300745   -6.215116124697    0.000000000000
 H   -0.635042300745   -5.183693124697    0.896190000000
 H   -0.635042300745   -5.183693124697   -0.896190000000
CS    0.974366786020    1.922512788351    0.000000000000
