12

 C   -2.927990005766   -2.072158473888    0.000000000000
 C   -1.815648005766   -3.091636473888    0.000000000000
 O   -2.319979005766   -4.358089473888    0.000000000000
 C   -1.305513005766   -5.391828473888    0.000000000000
 O   -0.618008005766   -2.847143473888    0.000000000000
 H   -2.495420005766   -1.065148473888    0.000000000000
 H   -3.560327005766   -2.214730473888    0.888615000000
 H   -3.560327005766   -2.214730473888   -0.888615000000
 H   -1.859610005766   -6.336952473888    0.000000000000
 H   -0.675718005766   -5.305529473888    0.896190000000
 H   -0.675718005766   -5.305529473888   -0.896190000000
CS    0.997025737602    1.990383374387    0.000000000000
