12

 C   -2.948327858276   -2.133076648484    0.000000000000
 C   -1.835985858276   -3.152554648484    0.000000000000
 O   -2.340316858276   -4.419007648484    0.000000000000
 C   -1.325850858276   -5.452746648484    0.000000000000
 O   -0.638345858276   -2.908061648484    0.000000000000
 H   -2.515757858276   -1.126066648484    0.000000000000
 H   -3.580664858276   -2.275648648484    0.888615000000
 H   -3.580664858276   -2.275648648484   -0.888615000000
 H   -1.879947858276   -6.397870648484    0.000000000000
 H   -0.696055858276   -5.366447648484    0.896190000000
 H   -0.696055858276   -5.366447648484   -0.896190000000
CS    1.008355213393    2.024318667405    0.000000000000
