12

 C   -2.968665710787   -2.193994823079    0.000000000000
 C   -1.856323710787   -3.213472823079    0.000000000000
 O   -2.360654710787   -4.479925823079    0.000000000000
 C   -1.346188710787   -5.513664823079    0.000000000000
 O   -0.658683710787   -2.968979823079    0.000000000000
 H   -2.536095710787   -1.186984823079    0.000000000000
 H   -3.601002710787   -2.336566823079    0.888615000000
 H   -3.601002710787   -2.336566823079   -0.888615000000
 H   -1.900285710787   -6.458788823079    0.000000000000
 H   -0.716393710787   -5.427365823079    0.896190000000
 H   -0.716393710787   -5.427365823079   -0.896190000000
CS    1.019684689183    2.058253960422    0.000000000000
