12

 C   -3.029679268319   -2.376749346866    0.000000000000
 C   -1.917337268319   -3.396227346866    0.000000000000
 O   -2.421668268319   -4.662680346866    0.000000000000
 C   -1.407202268319   -5.696419346866    0.000000000000
 O   -0.719697268319   -3.151734346866    0.000000000000
 H   -2.597109268319   -1.369739346866    0.000000000000
 H   -3.662016268319   -2.519321346866    0.888615000000
 H   -3.662016268319   -2.519321346866   -0.888615000000
 H   -1.961299268319   -6.641543346866    0.000000000000
 H   -0.777407268319   -5.610120346866    0.896190000000
 H   -0.777407268319   -5.610120346866   -0.896190000000
CS    1.053673116556    2.160059839476    0.000000000000
