12

 C   -3.111030678361   -2.620422045248    0.000000000000
 C   -1.998688678361   -3.639900045248    0.000000000000
 O   -2.503019678361   -4.906353045248    0.000000000000
 C   -1.488553678361   -5.940092045248    0.000000000000
 O   -0.801048678361   -3.395407045248    0.000000000000
 H   -2.678460678361   -1.613412045248    0.000000000000
 H   -3.743367678361   -2.762994045248    0.888615000000
 H   -3.743367678361   -2.762994045248   -0.888615000000
 H   -2.042650678361   -6.885216045248    0.000000000000
 H   -0.858758678361   -5.853793045248    0.896190000000
 H   -0.858758678361   -5.853793045248   -0.896190000000
CS    1.098991019719    2.295801011547    0.000000000000
