12

 C   -3.131368530871   -2.681340219843    0.000000000000
 C   -2.019026530871   -3.700818219843    0.000000000000
 O   -2.523357530871   -4.967271219843    0.000000000000
 C   -1.508891530871   -6.001010219843    0.000000000000
 O   -0.821386530871   -3.456325219843    0.000000000000
 H   -2.698798530871   -1.674330219843    0.000000000000
 H   -3.763705530871   -2.823912219843    0.888615000000
 H   -3.763705530871   -2.823912219843   -0.888615000000
 H   -2.062988530871   -6.946134219843    0.000000000000
 H   -0.879096530871   -5.914711219843    0.896190000000
 H   -0.879096530871   -5.914711219843   -0.896190000000
CS    1.110320495510    2.329736304565    0.000000000000
