12

 C   -3.212719940914   -2.925012918225    0.000000000000
 C   -2.100377940914   -3.944490918225    0.000000000000
 O   -2.604708940914   -5.210943918225    0.000000000000
 C   -1.590242940914   -6.244682918225    0.000000000000
 O   -0.902737940914   -3.699997918225    0.000000000000
 H   -2.780149940914   -1.918002918225    0.000000000000
 H   -3.845056940914   -3.067584918225    0.888615000000
 H   -3.845056940914   -3.067584918225   -0.888615000000
 H   -2.144339940914   -7.189806918225    0.000000000000
 H   -0.960447940914   -6.158383918225    0.896190000000
 H   -0.960447940914   -6.158383918225   -0.896190000000
CS    1.155638398673    2.465477476636    0.000000000000
