12

 C   -3.233057793424   -2.985931092820    0.000000000000
 C   -2.120715793424   -4.005409092820    0.000000000000
 O   -2.625046793424   -5.271862092820    0.000000000000
 C   -1.610580793424   -6.305601092820    0.000000000000
 O   -0.923075793424   -3.760916092820    0.000000000000
 H   -2.800487793424   -1.978921092820    0.000000000000
 H   -3.865394793424   -3.128503092820    0.888615000000
 H   -3.865394793424   -3.128503092820   -0.888615000000
 H   -2.164677793424   -7.250725092820    0.000000000000
 H   -0.980785793424   -6.219302092820    0.896190000000
 H   -0.980785793424   -6.219302092820   -0.896190000000
CS    1.166967874463    2.499412769653    0.000000000000
