12

 C   -3.334747055977   -3.290521965798    0.000000000000
 C   -2.222405055977   -4.309999965798    0.000000000000
 O   -2.726736055977   -5.576452965798    0.000000000000
 C   -1.712270055977   -6.610191965798    0.000000000000
 O   -1.024765055977   -4.065506965798    0.000000000000
 H   -2.902177055977   -2.283511965798    0.000000000000
 H   -3.967084055977   -3.433093965798    0.888615000000
 H   -3.967084055977   -3.433093965798   -0.888615000000
 H   -2.266367055977   -7.555315965798    0.000000000000
 H   -1.082475055977   -6.523892965798    0.896190000000
 H   -1.082475055977   -6.523892965798   -0.896190000000
CS    1.223615253417    2.669089234742    0.000000000000
