12

 C   -3.355084908487   -3.351440140393    0.000000000000
 C   -2.242742908487   -4.370918140393    0.000000000000
 O   -2.747073908487   -5.637371140393    0.000000000000
 C   -1.732607908487   -6.671110140393    0.000000000000
 O   -1.045102908487   -4.126425140393    0.000000000000
 H   -2.922514908487   -2.344430140393    0.000000000000
 H   -3.987421908487   -3.494012140393    0.888615000000
 H   -3.987421908487   -3.494012140393   -0.888615000000
 H   -2.286704908487   -7.616234140393    0.000000000000
 H   -1.102812908487   -6.584811140393    0.896190000000
 H   -1.102812908487   -6.584811140393   -0.896190000000
CS    1.234944729208    2.703024527760    0.000000000000
