12

 C   -3.416098466019   -3.534194664180    0.000000000000
 C   -2.303756466019   -4.553672664180    0.000000000000
 O   -2.808087466019   -5.820125664180    0.000000000000
 C   -1.793621466019   -6.853864664180    0.000000000000
 O   -1.106116466019   -4.309179664180    0.000000000000
 H   -2.983528466019   -2.527184664180    0.000000000000
 H   -4.048435466019   -3.676766664180    0.888615000000
 H   -4.048435466019   -3.676766664180   -0.888615000000
 H   -2.347718466019   -7.798988664180    0.000000000000
 H   -1.163826466019   -6.767565664180    0.896190000000
 H   -1.163826466019   -6.767565664180   -0.896190000000
CS    1.268933156580    2.804830406813    0.000000000000
