12

 C   -3.436436318530   -3.595112838775    0.000000000000
 C   -2.324094318530   -4.614590838775    0.000000000000
 O   -2.828425318530   -5.881043838775    0.000000000000
 C   -1.813959318530   -6.914782838775    0.000000000000
 O   -1.126454318530   -4.370097838775    0.000000000000
 H   -3.003866318530   -2.588102838775    0.000000000000
 H   -4.068773318530   -3.737684838775    0.888615000000
 H   -4.068773318530   -3.737684838775   -0.888615000000
 H   -2.368056318530   -7.859906838775    0.000000000000
 H   -1.184164318530   -6.828483838775    0.896190000000
 H   -1.184164318530   -6.828483838775   -0.896190000000
CS    1.280262632371    2.838765699831    0.000000000000
