12

 C   -3.456774171040   -3.656031013371    0.000000000000
 C   -2.344432171040   -4.675509013371    0.000000000000
 O   -2.848763171040   -5.941962013371    0.000000000000
 C   -1.834297171040   -6.975701013371    0.000000000000
 O   -1.146792171040   -4.431016013371    0.000000000000
 H   -3.024204171040   -2.649021013371    0.000000000000
 H   -4.089111171040   -3.798603013371    0.888615000000
 H   -4.089111171040   -3.798603013371   -0.888615000000
 H   -2.388394171040   -7.920825013371    0.000000000000
 H   -1.204502171040   -6.889402013371    0.896190000000
 H   -1.204502171040   -6.889402013371   -0.896190000000
CS    1.291592108162    2.872700992849    0.000000000000
