12

 C   -3.497449876061   -3.777867362561    0.000000000000
 C   -2.385107876061   -4.797345362561    0.000000000000
 O   -2.889438876061   -6.063798362561    0.000000000000
 C   -1.874972876061   -7.097537362561    0.000000000000
 O   -1.187467876061   -4.552852362561    0.000000000000
 H   -3.064879876061   -2.770857362561    0.000000000000
 H   -4.129786876061   -3.920439362561    0.888615000000
 H   -4.129786876061   -3.920439362561   -0.888615000000
 H   -2.429069876061   -8.042661362561    0.000000000000
 H   -1.245177876061   -7.011238362561    0.896190000000
 H   -1.245177876061   -7.011238362561   -0.896190000000
CS    1.314251059744    2.940571578885    0.000000000000
