12

 C   -3.538125581082   -3.899703711752    0.000000000000
 C   -2.425783581082   -4.919181711752    0.000000000000
 O   -2.930114581082   -6.185634711752    0.000000000000
 C   -1.915648581082   -7.219373711752    0.000000000000
 O   -1.228143581082   -4.674688711752    0.000000000000
 H   -3.105555581082   -2.892693711752    0.000000000000
 H   -4.170462581082   -4.042275711752    0.888615000000
 H   -4.170462581082   -4.042275711752   -0.888615000000
 H   -2.469745581082   -8.164497711752    0.000000000000
 H   -1.285853581082   -7.133074711752    0.896190000000
 H   -1.285853581082   -7.133074711752   -0.896190000000
CS    1.336910011325    3.008442164920    0.000000000000
