12

 C   -3.558463433593   -3.960621886348    0.000000000000
 C   -2.446121433593   -4.980099886348    0.000000000000
 O   -2.950452433593   -6.246552886348    0.000000000000
 C   -1.935986433593   -7.280291886348    0.000000000000
 O   -1.248481433593   -4.735606886348    0.000000000000
 H   -3.125893433593   -2.953611886348    0.000000000000
 H   -4.190800433593   -4.103193886348    0.888615000000
 H   -4.190800433593   -4.103193886348   -0.888615000000
 H   -2.490083433593   -8.225415886348    0.000000000000
 H   -1.306191433593   -7.193992886348    0.896190000000
 H   -1.306191433593   -7.193992886348   -0.896190000000
CS    1.348239487116    3.042377457938    0.000000000000
