12

 C   -3.599139138614   -4.082458235539    0.000000000000
 C   -2.486797138614   -5.101936235539    0.000000000000
 O   -2.991128138614   -6.368389235539    0.000000000000
 C   -1.976662138614   -7.402128235539    0.000000000000
 O   -1.289157138614   -4.857443235539    0.000000000000
 H   -3.166569138614   -3.075448235539    0.000000000000
 H   -4.231476138614   -4.225030235539    0.888615000000
 H   -4.231476138614   -4.225030235539   -0.888615000000
 H   -2.530759138614   -8.347252235539    0.000000000000
 H   -1.346867138614   -7.315829235539    0.896190000000
 H   -1.346867138614   -7.315829235539   -0.896190000000
CS    1.370898438697    3.110248043973    0.000000000000
