12

 C   -3.619476991125   -4.143376410134    0.000000000000
 C   -2.507134991125   -5.162854410134    0.000000000000
 O   -3.011465991125   -6.429307410134    0.000000000000
 C   -1.996999991125   -7.463046410134    0.000000000000
 O   -1.309494991125   -4.918361410134    0.000000000000
 H   -3.186906991125   -3.136366410134    0.000000000000
 H   -4.251813991125   -4.285948410134    0.888615000000
 H   -4.251813991125   -4.285948410134   -0.888615000000
 H   -2.551096991125   -8.408170410134    0.000000000000
 H   -1.367204991125   -7.376747410134    0.896190000000
 H   -1.367204991125   -7.376747410134   -0.896190000000
CS    1.382227914488    3.144183336991    0.000000000000
