12

 C   -3.660152696146   -4.265212759325    0.000000000000
 C   -2.547810696146   -5.284690759325    0.000000000000
 O   -3.052141696146   -6.551143759325    0.000000000000
 C   -2.037675696146   -7.584882759325    0.000000000000
 O   -1.350170696146   -5.040197759325    0.000000000000
 H   -3.227582696146   -3.258202759325    0.000000000000
 H   -4.292489696146   -4.407784759325    0.888615000000
 H   -4.292489696146   -4.407784759325   -0.888615000000
 H   -2.591772696146   -8.530006759325    0.000000000000
 H   -1.407880696146   -7.498583759325    0.896190000000
 H   -1.407880696146   -7.498583759325   -0.896190000000
CS    1.404886866070    3.212053923027    0.000000000000
