12

 C   -3.680490548656   -4.326130933921    0.000000000000
 C   -2.568148548656   -5.345608933921    0.000000000000
 O   -3.072479548656   -6.612061933921    0.000000000000
 C   -2.058013548656   -7.645800933921    0.000000000000
 O   -1.370508548656   -5.101115933921    0.000000000000
 H   -3.247920548656   -3.319120933921    0.000000000000
 H   -4.312827548656   -4.468702933921    0.888615000000
 H   -4.312827548656   -4.468702933921   -0.888615000000
 H   -2.612110548656   -8.590924933921    0.000000000000
 H   -1.428218548656   -7.559501933921    0.896190000000
 H   -1.428218548656   -7.559501933921   -0.896190000000
CS    1.416216341861    3.245989216044    0.000000000000
