12

 C   -3.721166253677   -4.447967283112    0.000000000000
 C   -2.608824253677   -5.467445283112    0.000000000000
 O   -3.113155253677   -6.733898283112    0.000000000000
 C   -2.098689253677   -7.767637283112    0.000000000000
 O   -1.411184253677   -5.222952283112    0.000000000000
 H   -3.288596253677   -3.440957283112    0.000000000000
 H   -4.353503253677   -4.590539283112    0.888615000000
 H   -4.353503253677   -4.590539283112   -0.888615000000
 H   -2.652786253677   -8.712761283112    0.000000000000
 H   -1.468894253677   -7.681338283112    0.896190000000
 H   -1.468894253677   -7.681338283112   -0.896190000000
CS    1.438875293442    3.313859802080    0.000000000000
