12

 C   -3.761841958698   -4.569803632303    0.000000000000
 C   -2.649499958698   -5.589281632303    0.000000000000
 O   -3.153830958698   -6.855734632303    0.000000000000
 C   -2.139364958698   -7.889473632303    0.000000000000
 O   -1.451859958698   -5.344788632303    0.000000000000
 H   -3.329271958698   -3.562793632303    0.000000000000
 H   -4.394178958698   -4.712375632303    0.888615000000
 H   -4.394178958698   -4.712375632303   -0.888615000000
 H   -2.693461958698   -8.834597632303    0.000000000000
 H   -1.509569958698   -7.803174632303    0.896190000000
 H   -1.509569958698   -7.803174632303   -0.896190000000
CS    1.461534245024    3.381730388116    0.000000000000
