12

 C   -3.782179811209   -4.630721806898    0.000000000000
 C   -2.669837811209   -5.650199806898    0.000000000000
 O   -3.174168811209   -6.916652806898    0.000000000000
 C   -2.159702811209   -7.950391806898    0.000000000000
 O   -1.472197811209   -5.405706806898    0.000000000000
 H   -3.349609811209   -3.623711806898    0.000000000000
 H   -4.414516811209   -4.773293806898    0.888615000000
 H   -4.414516811209   -4.773293806898   -0.888615000000
 H   -2.713799811209   -8.895515806898    0.000000000000
 H   -1.529907811209   -7.864092806898    0.896190000000
 H   -1.529907811209   -7.864092806898   -0.896190000000
CS    1.472863720814    3.415665681133    0.000000000000
