12

 C   -3.822855516230   -4.752558156089    0.000000000000
 C   -2.710513516230   -5.772036156089    0.000000000000
 O   -3.214844516230   -7.038489156089    0.000000000000
 C   -2.200378516230   -8.072228156089    0.000000000000
 O   -1.512873516230   -5.527543156089    0.000000000000
 H   -3.390285516230   -3.745548156089    0.000000000000
 H   -4.455192516230   -4.895130156089    0.888615000000
 H   -4.455192516230   -4.895130156089   -0.888615000000
 H   -2.754475516230   -9.017352156089    0.000000000000
 H   -1.570583516230   -7.985929156089    0.896190000000
 H   -1.570583516230   -7.985929156089   -0.896190000000
CS    1.495522672396    3.483536267169    0.000000000000
