12

 C   -3.883869073762   -4.935312679875    0.000000000000
 C   -2.771527073762   -5.954790679875    0.000000000000
 O   -3.275858073762   -7.221243679875    0.000000000000
 C   -2.261392073762   -8.254982679875    0.000000000000
 O   -1.573887073762   -5.710297679875    0.000000000000
 H   -3.451299073762   -3.928302679875    0.000000000000
 H   -4.516206073762   -5.077884679875    0.888615000000
 H   -4.516206073762   -5.077884679875   -0.888615000000
 H   -2.815489073762   -9.200106679875    0.000000000000
 H   -1.631597073762   -8.168683679875    0.896190000000
 H   -1.631597073762   -8.168683679875   -0.896190000000
CS    1.529511099768    3.585342146222    0.000000000000
