13

 C    1.287124239431    1.328631574386    0.000000000000
 H    0.820504239431    2.320798574386    0.000000000000
 H    1.924273239431    1.224214574386    0.892506000000
 H    1.924273239431    1.224214574386   -0.892506000000
 C    0.188949239431    0.277546574386    0.000000000000
 O   -1.017213760569    0.555600574386    0.000000000000
 N    0.619878239431   -1.022602425614    0.000000000000
 H    1.612055239431   -1.216503425614    0.000000000000
 C   -0.338456760569   -2.121130425614    0.000000000000
 H   -0.982521760569   -2.072651425614    0.890708000000
 H   -0.982521760569   -2.072651425614   -0.890708000000
 H    0.214769239431   -3.069555425614    0.000000000000
LI   -1.514771180740    2.181157898393    0.000000000000
