13

 C    1.289688847100    1.320252809219    0.000000000000
 H    0.823068847100    2.312419809219    0.000000000000
 H    1.926837847100    1.215835809219    0.892506000000
 H    1.926837847100    1.215835809219   -0.892506000000
 C    0.191513847100    0.269167809219    0.000000000000
 O   -1.014649152900    0.547221809219    0.000000000000
 N    0.622442847100   -1.030981190781    0.000000000000
 H    1.614619847100   -1.224882190781    0.000000000000
 C   -0.335892152900   -2.129509190781    0.000000000000
 H   -0.979957152900   -2.081030190781    0.890708000000
 H   -0.979957152900   -2.081030190781   -0.890708000000
 H    0.217333847100   -3.077934190781    0.000000000000
LI   -1.541474656610    2.268400152285    0.000000000000
