13

 C    1.292253454770    1.311874044052    0.000000000000
 H    0.825633454770    2.304041044052    0.000000000000
 H    1.929402454770    1.207457044052    0.892506000000
 H    1.929402454770    1.207457044052   -0.892506000000
 C    0.194078454770    0.260789044052    0.000000000000
 O   -1.012084545230    0.538843044052    0.000000000000
 N    0.625007454770   -1.039359955948    0.000000000000
 H    1.617184454770   -1.233260955948    0.000000000000
 C   -0.333327545230   -2.137887955948    0.000000000000
 H   -0.977392545230   -2.089408955948    0.890708000000
 H   -0.977392545230   -2.089408955948   -0.890708000000
 H    0.219898454770   -3.086312955948    0.000000000000
LI   -1.568178132479    2.355642406177    0.000000000000
