13

 C    1.294818062440    1.303495278884    0.000000000000
 H    0.828198062440    2.295662278884    0.000000000000
 H    1.931967062440    1.199078278884    0.892506000000
 H    1.931967062440    1.199078278884   -0.892506000000
 C    0.196643062440    0.252410278884    0.000000000000
 O   -1.009519937560    0.530464278884    0.000000000000
 N    0.627572062440   -1.047738721116    0.000000000000
 H    1.619749062440   -1.241639721116    0.000000000000
 C   -0.330762937560   -2.146266721116    0.000000000000
 H   -0.974827937560   -2.097787721116    0.890708000000
 H   -0.974827937560   -2.097787721116   -0.890708000000
 H    0.222463062440   -3.094691721116    0.000000000000
LI   -1.594881608349    2.442884660069    0.000000000000
