13

 C    1.299947277780    1.286737748549    0.000000000000
 H    0.833327277780    2.278904748549    0.000000000000
 H    1.937096277780    1.182320748549    0.892506000000
 H    1.937096277780    1.182320748549   -0.892506000000
 C    0.201772277780    0.235652748549    0.000000000000
 O   -1.004390722220    0.513706748549    0.000000000000
 N    0.632701277780   -1.064496251451    0.000000000000
 H    1.624878277780   -1.258397251451    0.000000000000
 C   -0.325633722220   -2.163024251451    0.000000000000
 H   -0.969698722220   -2.114545251451    0.890708000000
 H   -0.969698722220   -2.114545251451   -0.890708000000
 H    0.227592277780   -3.111449251451    0.000000000000
LI   -1.648288560088    2.617369167853    0.000000000000
