13

 C    1.305076493119    1.269980218215    0.000000000000
 H    0.838456493119    2.262147218215    0.000000000000
 H    1.942225493119    1.165563218215    0.892506000000
 H    1.942225493119    1.165563218215   -0.892506000000
 C    0.206901493119    0.218895218215    0.000000000000
 O   -0.999261506881    0.496949218215    0.000000000000
 N    0.637830493119   -1.081253781785    0.000000000000
 H    1.630007493119   -1.275154781785    0.000000000000
 C   -0.320504506881   -2.179781781785    0.000000000000
 H   -0.964569506881   -2.131302781785    0.890708000000
 H   -0.964569506881   -2.131302781785   -0.890708000000
 H    0.232721493119   -3.128206781785    0.000000000000
LI   -1.701695511827    2.791853675637    0.000000000000
