13

 C    1.307641100789    1.261601453047    0.000000000000
 H    0.841021100789    2.253768453047    0.000000000000
 H    1.944790100789    1.157184453047    0.892506000000
 H    1.944790100789    1.157184453047   -0.892506000000
 C    0.209466100789    0.210516453047    0.000000000000
 O   -0.996696899211    0.488570453047    0.000000000000
 N    0.640395100789   -1.089632546953    0.000000000000
 H    1.632572100789   -1.283533546953    0.000000000000
 C   -0.317939899211   -2.188160546953    0.000000000000
 H   -0.962004899211   -2.139681546953    0.890708000000
 H   -0.962004899211   -2.139681546953   -0.890708000000
 H    0.235286100789   -3.136585546953    0.000000000000
LI   -1.728398987697    2.879095929528    0.000000000000
