13

 C    1.323028746808    1.211328862043    0.000000000000
 H    0.856408746808    2.203495862043    0.000000000000
 H    1.960177746808    1.106911862043    0.892506000000
 H    1.960177746808    1.106911862043   -0.892506000000
 C    0.224853746808    0.160243862043    0.000000000000
 O   -0.981309253192    0.438297862043    0.000000000000
 N    0.655782746808   -1.139905137957    0.000000000000
 H    1.647959746808   -1.333806137957    0.000000000000
 C   -0.302552253192   -2.238433137957    0.000000000000
 H   -0.946617253192   -2.189954137957    0.890708000000
 H   -0.946617253192   -2.189954137957   -0.890708000000
 H    0.250673746808   -3.186858137957    0.000000000000
LI   -1.888619842915    3.402549452880    0.000000000000
