13

 C    1.328157962148    1.194571331709    0.000000000000
 H    0.861537962148    2.186738331709    0.000000000000
 H    1.965306962148    1.090154331709    0.892506000000
 H    1.965306962148    1.090154331709   -0.892506000000
 C    0.229982962148    0.143486331709    0.000000000000
 O   -0.976180037852    0.421540331709    0.000000000000
 N    0.660911962148   -1.156662668291    0.000000000000
 H    1.653088962148   -1.350563668291    0.000000000000
 C   -0.297423037852   -2.255190668291    0.000000000000
 H   -0.941488037852   -2.206711668291    0.890708000000
 H   -0.941488037852   -2.206711668291   -0.890708000000
 H    0.255802962148   -3.203615668291    0.000000000000
LI   -1.942026794654    3.577033960664    0.000000000000
