13

 C    1.333287177487    1.177813801374    0.000000000000
 H    0.866667177487    2.169980801374    0.000000000000
 H    1.970436177487    1.073396801374    0.892506000000
 H    1.970436177487    1.073396801374   -0.892506000000
 C    0.235112177487    0.126728801374    0.000000000000
 O   -0.971050822513    0.404782801374    0.000000000000
 N    0.666041177487   -1.173420198626    0.000000000000
 H    1.658218177487   -1.367321198626    0.000000000000
 C   -0.292293822513   -2.271948198626    0.000000000000
 H   -0.936358822513   -2.223469198626    0.890708000000
 H   -0.936358822513   -2.223469198626   -0.890708000000
 H    0.260932177487   -3.220373198626    0.000000000000
LI   -1.995433746393    3.751518468447    0.000000000000
