13

 C    1.335851785157    1.169435036207    0.000000000000
 H    0.869231785157    2.161602036207    0.000000000000
 H    1.973000785157    1.065018036207    0.892506000000
 H    1.973000785157    1.065018036207   -0.892506000000
 C    0.237676785157    0.118350036207    0.000000000000
 O   -0.968486214843    0.396404036207    0.000000000000
 N    0.668605785157   -1.181798963793    0.000000000000
 H    1.660782785157   -1.375699963793    0.000000000000
 C   -0.289729214843   -2.280326963793    0.000000000000
 H   -0.933794214843   -2.231847963793    0.890708000000
 H   -0.933794214843   -2.231847963793   -0.890708000000
 H    0.263496785157   -3.228751963793    0.000000000000
LI   -2.022137222263    3.838760722339    0.000000000000
