13

 C    1.351239431176    1.119162445202    0.000000000000
 H    0.884619431176    2.111329445202    0.000000000000
 H    1.988388431176    1.014745445202    0.892506000000
 H    1.988388431176    1.014745445202   -0.892506000000
 C    0.253064431176    0.068077445202    0.000000000000
 O   -0.953098568824    0.346131445202    0.000000000000
 N    0.683993431176   -1.232071554798    0.000000000000
 H    1.676170431176   -1.425972554798    0.000000000000
 C   -0.274341568824   -2.330599554798    0.000000000000
 H   -0.918406568824   -2.282120554798    0.890708000000
 H   -0.918406568824   -2.282120554798   -0.890708000000
 H    0.278884431176   -3.279024554798    0.000000000000
LI   -2.182358077481    4.362214245691    0.000000000000
