13

 C    1.358933254186    1.094026149700    0.000000000000
 H    0.892313254186    2.086193149700    0.000000000000
 H    1.996082254186    0.989609149700    0.892506000000
 H    1.996082254186    0.989609149700   -0.892506000000
 C    0.260758254186    0.042941149700    0.000000000000
 O   -0.945404745814    0.320995149700    0.000000000000
 N    0.691687254186   -1.257207850300    0.000000000000
 H    1.683864254186   -1.451108850300    0.000000000000
 C   -0.266647745814   -2.355735850300    0.000000000000
 H   -0.910712745814   -2.307256850300    0.890708000000
 H   -0.910712745814   -2.307256850300   -0.890708000000
 H    0.286578254186   -3.304160850300    0.000000000000
LI   -2.262468505089    4.623941007366    0.000000000000
