13

 C    1.361497861855    1.085647384533    0.000000000000
 H    0.894877861855    2.077814384533    0.000000000000
 H    1.998646861855    0.981230384533    0.892506000000
 H    1.998646861855    0.981230384533   -0.892506000000
 C    0.263322861855    0.034562384533    0.000000000000
 O   -0.942840138145    0.312616384533    0.000000000000
 N    0.694251861855   -1.265586615467    0.000000000000
 H    1.686428861855   -1.459487615467    0.000000000000
 C   -0.264083138145   -2.364114615467    0.000000000000
 H   -0.908148138145   -2.315635615467    0.890708000000
 H   -0.908148138145   -2.315635615467   -0.890708000000
 H    0.289142861855   -3.312539615467    0.000000000000
LI   -2.289171980959    4.711183261258    0.000000000000
