13

 C    1.374320900205    1.043753558696    0.000000000000
 H    0.907700900205    2.035920558696    0.000000000000
 H    2.011469900205    0.939336558696    0.892506000000
 H    2.011469900205    0.939336558696   -0.892506000000
 C    0.276145900205   -0.007331441304    0.000000000000
 O   -0.930017099795    0.270722558696    0.000000000000
 N    0.707074900205   -1.307480441304    0.000000000000
 H    1.699251900205   -1.501381441304    0.000000000000
 C   -0.251260099795   -2.406008441304    0.000000000000
 H   -0.895325099795   -2.357529441304    0.890708000000
 H   -0.895325099795   -2.357529441304   -0.890708000000
 H    0.301965900205   -3.354433441304    0.000000000000
LI   -2.422689360307    5.147394530718    0.000000000000
