13

 C    1.379450115544    1.026996028361    0.000000000000
 H    0.912830115544    2.019163028361    0.000000000000
 H    2.016599115544    0.922579028361    0.892506000000
 H    2.016599115544    0.922579028361   -0.892506000000
 C    0.281275115544   -0.024088971639    0.000000000000
 O   -0.924887884456    0.253965028361    0.000000000000
 N    0.712204115544   -1.324237971639    0.000000000000
 H    1.704381115544   -1.518138971639    0.000000000000
 C   -0.246130884456   -2.422765971639    0.000000000000
 H   -0.890195884456   -2.374286971639    0.890708000000
 H   -0.890195884456   -2.374286971639   -0.890708000000
 H    0.307095115544   -3.371190971639    0.000000000000
LI   -2.476096312046    5.321879038501    0.000000000000
