13

 C    1.387143938554    1.001859732859    0.000000000000
 H    0.920523938554    1.994026732859    0.000000000000
 H    2.024292938554    0.897442732859    0.892506000000
 H    2.024292938554    0.897442732859   -0.892506000000
 C    0.288968938554   -0.049225267141    0.000000000000
 O   -0.917194061446    0.228828732859    0.000000000000
 N    0.719897938554   -1.349374267141    0.000000000000
 H    1.712074938554   -1.543275267141    0.000000000000
 C   -0.238437061446   -2.447902267141    0.000000000000
 H   -0.882502061446   -2.399423267141    0.890708000000
 H   -0.882502061446   -2.399423267141   -0.890708000000
 H    0.314788938554   -3.396327267141    0.000000000000
LI   -2.556206739655    5.583605800177    0.000000000000
