13

 C    1.392273153893    0.985102202525    0.000000000000
 H    0.925653153893    1.977269202525    0.000000000000
 H    2.029422153893    0.880685202525    0.892506000000
 H    2.029422153893    0.880685202525   -0.892506000000
 C    0.294098153893   -0.065982797475    0.000000000000
 O   -0.912064846107    0.212071202525    0.000000000000
 N    0.725027153893   -1.366131797475    0.000000000000
 H    1.717204153893   -1.560032797475    0.000000000000
 C   -0.233307846107   -2.464659797475    0.000000000000
 H   -0.877372846107   -2.416180797475    0.890708000000
 H   -0.877372846107   -2.416180797475   -0.890708000000
 H    0.319918153893   -3.413084797475    0.000000000000
LI   -2.609613691394    5.758090307961    0.000000000000
