13

 C    1.394837761563    0.976723437357    0.000000000000
 H    0.928217761563    1.968890437357    0.000000000000
 H    2.031986761563    0.872306437357    0.892506000000
 H    2.031986761563    0.872306437357   -0.892506000000
 C    0.296662761563   -0.074361562643    0.000000000000
 O   -0.909500238437    0.203692437357    0.000000000000
 N    0.727591761563   -1.374510562643    0.000000000000
 H    1.719768761563   -1.568411562643    0.000000000000
 C   -0.230743238437   -2.473038562643    0.000000000000
 H   -0.874808238437   -2.424559562643    0.890708000000
 H   -0.874808238437   -2.424559562643   -0.890708000000
 H    0.322482761563   -3.421463562643    0.000000000000
LI   -2.636317167264    5.845332561853    0.000000000000
