13

 C    1.399966976903    0.959965907023    0.000000000000
 H    0.933346976903    1.952132907023    0.000000000000
 H    2.037115976903    0.855548907023    0.892506000000
 H    2.037115976903    0.855548907023   -0.892506000000
 C    0.301791976903   -0.091119092977    0.000000000000
 O   -0.904371023097    0.186934907023    0.000000000000
 N    0.732720976903   -1.391268092977    0.000000000000
 H    1.724897976903   -1.585169092977    0.000000000000
 C   -0.225614023097   -2.489796092977    0.000000000000
 H   -0.869679023097   -2.441317092977    0.890708000000
 H   -0.869679023097   -2.441317092977   -0.890708000000
 H    0.327611976903   -3.438221092977    0.000000000000
LI   -2.689724119003    6.019817069636    0.000000000000
