13

 C    1.402531584573    0.951587141855    0.000000000000
 H    0.935911584573    1.943754141855    0.000000000000
 H    2.039680584573    0.847170141855    0.892506000000
 H    2.039680584573    0.847170141855   -0.892506000000
 C    0.304356584573   -0.099497858145    0.000000000000
 O   -0.901806415427    0.178556141855    0.000000000000
 N    0.735285584573   -1.399646858145    0.000000000000
 H    1.727462584573   -1.593547858145    0.000000000000
 C   -0.223049415427   -2.498174858145    0.000000000000
 H   -0.867114415427   -2.449695858145    0.890708000000
 H   -0.867114415427   -2.449695858145   -0.890708000000
 H    0.330176584573   -3.446599858145    0.000000000000
LI   -2.716427594873    6.107059323528    0.000000000000
