13

 C    1.410225407582    0.926450846353    0.000000000000
 H    0.943605407582    1.918617846353    0.000000000000
 H    2.047374407582    0.822033846353    0.892506000000
 H    2.047374407582    0.822033846353   -0.892506000000
 C    0.312050407582   -0.124634153647    0.000000000000
 O   -0.894112592418    0.153419846353    0.000000000000
 N    0.742979407582   -1.424783153647    0.000000000000
 H    1.735156407582   -1.618684153647    0.000000000000
 C   -0.215355592418   -2.523311153647    0.000000000000
 H   -0.859420592418   -2.474832153647    0.890708000000
 H   -0.859420592418   -2.474832153647   -0.890708000000
 H    0.337870407582   -3.471736153647    0.000000000000
LI   -2.796538022482    6.368786085204    0.000000000000
