13

 C    1.420483838261    0.892935785684    0.000000000000
 H    0.953863838261    1.885102785684    0.000000000000
 H    2.057632838261    0.788518785684    0.892506000000
 H    2.057632838261    0.788518785684   -0.892506000000
 C    0.322308838261   -0.158149214316    0.000000000000
 O   -0.883854161739    0.119904785684    0.000000000000
 N    0.753237838261   -1.458298214316    0.000000000000
 H    1.745414838261   -1.652199214316    0.000000000000
 C   -0.205097161739   -2.556826214316    0.000000000000
 H   -0.849162161739   -2.508347214316    0.890708000000
 H   -0.849162161739   -2.508347214316   -0.890708000000
 H    0.348128838261   -3.505251214316    0.000000000000
LI   -2.903351925960    6.717755100772    0.000000000000
