13

 C    1.433306876611    0.851041959847    0.000000000000
 H    0.966686876611    1.843208959847    0.000000000000
 H    2.070455876611    0.746624959847    0.892506000000
 H    2.070455876611    0.746624959847   -0.892506000000
 C    0.335131876611   -0.200043040153    0.000000000000
 O   -0.871031123389    0.078010959847    0.000000000000
 N    0.766060876611   -1.500192040153    0.000000000000
 H    1.758237876611   -1.694093040153    0.000000000000
 C   -0.192274123389   -2.598720040153    0.000000000000
 H   -0.836339123389   -2.550241040153    0.890708000000
 H   -0.836339123389   -2.550241040153   -0.890708000000
 H    0.360951876611   -3.547145040153    0.000000000000
LI   -3.036869305308    7.153966370231    0.000000000000
