13

 C    1.443565307290    0.817526899178    0.000000000000
 H    0.976945307290    1.809693899178    0.000000000000
 H    2.080714307290    0.713109899178    0.892506000000
 H    2.080714307290    0.713109899178   -0.892506000000
 C    0.345390307290   -0.233558100822    0.000000000000
 O   -0.860772692710    0.044495899178    0.000000000000
 N    0.776319307290   -1.533707100822    0.000000000000
 H    1.768496307290   -1.727608100822    0.000000000000
 C   -0.182015692710   -2.632235100822    0.000000000000
 H   -0.826080692710   -2.583756100822    0.890708000000
 H   -0.826080692710   -2.583756100822   -0.890708000000
 H    0.371210307290   -3.580660100822    0.000000000000
LI   -3.143683208787    7.502935385798    0.000000000000
