13

 C    1.446129914960    0.809148134010    0.000000000000
 H    0.979509914960    1.801315134010    0.000000000000
 H    2.083278914960    0.704731134010    0.892506000000
 H    2.083278914960    0.704731134010   -0.892506000000
 C    0.347954914960   -0.241936865990    0.000000000000
 O   -0.858208085040    0.036117134010    0.000000000000
 N    0.778883914960   -1.542085865990    0.000000000000
 H    1.771060914960   -1.735986865990    0.000000000000
 C   -0.179451085040   -2.640613865990    0.000000000000
 H   -0.823516085040   -2.592134865990    0.890708000000
 H   -0.823516085040   -2.592134865990   -0.890708000000
 H    0.373774914960   -3.589038865990    0.000000000000
LI   -3.170386684657    7.590177639690    0.000000000000
