13

 C    1.451259130299    0.792390603675    0.000000000000
 H    0.984639130299    1.784557603675    0.000000000000
 H    2.088408130299    0.687973603675    0.892506000000
 H    2.088408130299    0.687973603675   -0.892506000000
 C    0.353084130299   -0.258694396325    0.000000000000
 O   -0.853078869701    0.019359603675    0.000000000000
 N    0.784013130299   -1.558843396325    0.000000000000
 H    1.776190130299   -1.752744396325    0.000000000000
 C   -0.174321869701   -2.657371396325    0.000000000000
 H   -0.818386869701   -2.608892396325    0.890708000000
 H   -0.818386869701   -2.608892396325   -0.890708000000
 H    0.378904130299   -3.605796396325    0.000000000000
LI   -3.223793636396    7.764662147474    0.000000000000
