13

 C    1.466646776318    0.742118012671    0.000000000000
 H    1.000026776318    1.734285012671    0.000000000000
 H    2.103795776318    0.637701012671    0.892506000000
 H    2.103795776318    0.637701012671   -0.892506000000
 C    0.368471776318   -0.308966987329    0.000000000000
 O   -0.837691223682   -0.030912987329    0.000000000000
 N    0.799400776318   -1.609115987329    0.000000000000
 H    1.791577776318   -1.803016987329    0.000000000000
 C   -0.158934223682   -2.707643987329    0.000000000000
 H   -0.802999223682   -2.659164987329    0.890708000000
 H   -0.802999223682   -2.659164987329   -0.890708000000
 H    0.394291776318   -3.656068987329    0.000000000000
LI   -3.384014491614    8.288115670825    0.000000000000
