13

 C    1.484599030007    0.683466656500    0.000000000000
 H    1.017979030007    1.675633656500    0.000000000000
 H    2.121748030007    0.579049656500    0.892506000000
 H    2.121748030007    0.579049656500   -0.892506000000
 C    0.386424030007   -0.367618343500    0.000000000000
 O   -0.819738969993   -0.089564343500    0.000000000000
 N    0.817353030007   -1.667767343500    0.000000000000
 H    1.809530030007   -1.861668343500    0.000000000000
 C   -0.140981969993   -2.766295343500    0.000000000000
 H   -0.785046969993   -2.717816343500    0.890708000000
 H   -0.785046969993   -2.717816343500   -0.890708000000
 H    0.412244030007   -3.714720343500    0.000000000000
LI   -3.570938822701    8.898811448069    0.000000000000
