13

 C    1.487163637677    0.675087891332    0.000000000000
 H    1.020543637677    1.667254891332    0.000000000000
 H    2.124312637677    0.570670891332    0.892506000000
 H    2.124312637677    0.570670891332   -0.892506000000
 C    0.388988637677   -0.375997108668    0.000000000000
 O   -0.817174362323   -0.097943108668    0.000000000000
 N    0.819917637677   -1.676146108668    0.000000000000
 H    1.812094637677   -1.870047108668    0.000000000000
 C   -0.138417362323   -2.774674108668    0.000000000000
 H   -0.782482362323   -2.726195108668    0.890708000000
 H   -0.782482362323   -2.726195108668   -0.890708000000
 H    0.414808637677   -3.723099108668    0.000000000000
LI   -3.597642298571    8.986053701961    0.000000000000
