13

 C    1.489728245347    0.666709126165    0.000000000000
 H    1.023108245347    1.658876126165    0.000000000000
 H    2.126877245347    0.562292126165    0.892506000000
 H    2.126877245347    0.562292126165   -0.892506000000
 C    0.391553245347   -0.384375873835    0.000000000000
 O   -0.814609754653   -0.106321873835    0.000000000000
 N    0.822482245347   -1.684524873835    0.000000000000
 H    1.814659245347   -1.878425873835    0.000000000000
 C   -0.135852754653   -2.783052873835    0.000000000000
 H   -0.779917754653   -2.734573873835    0.890708000000
 H   -0.779917754653   -2.734573873835   -0.890708000000
 H    0.417373245347   -3.731477873835    0.000000000000
LI   -3.624345774440    9.073295955852    0.000000000000
