13

 C    1.494857460686    0.649951595830    0.000000000000
 H    1.028237460686    1.642118595830    0.000000000000
 H    2.132006460686    0.545534595830    0.892506000000
 H    2.132006460686    0.545534595830   -0.892506000000
 C    0.396682460686   -0.401133404170    0.000000000000
 O   -0.809480539314   -0.123079404170    0.000000000000
 N    0.827611460686   -1.701282404170    0.000000000000
 H    1.819788460686   -1.895183404170    0.000000000000
 C   -0.130723539314   -2.799810404170    0.000000000000
 H   -0.774788539314   -2.751331404170    0.890708000000
 H   -0.774788539314   -2.751331404170   -0.890708000000
 H    0.422502460686   -3.748235404170    0.000000000000
LI   -3.677752726179    9.247780463636    0.000000000000
