8

 C    0.167202771218   -1.505320661438   -0.212511797361
 H    1.202702771218   -1.881408661438   -0.212511797361
 H   -0.365997228782   -1.886023661438    0.675825202639
 H   -0.365997228782   -1.886023661438   -1.100848797361
 C    0.125436771218    0.050763338562   -0.212511797361
 O   -1.041759228782    0.556986338562   -0.212511797361
 O    1.249507771218    0.646181338562   -0.212511797361
LI   -1.041759228782    0.556986338562    1.787488202639
