8

 C    0.167202771218   -1.505320661438   -0.371895645381
 H    1.202702771218   -1.881408661438   -0.371895645381
 H   -0.365997228782   -1.886023661438    0.516441354619
 H   -0.365997228782   -1.886023661438   -1.260232645381
 C    0.125436771218    0.050763338562   -0.371895645381
 O   -1.041759228782    0.556986338562   -0.371895645381
 O    1.249507771218    0.646181338562   -0.371895645381
LI   -1.041759228782    0.556986338562    3.128104354619
