8

 C    0.167202771218   -1.505320661438   -0.637535392082
 H    1.202702771218   -1.881408661438   -0.637535392082
 H   -0.365997228782   -1.886023661438    0.250801607918
 H   -0.365997228782   -1.886023661438   -1.525872392082
 C    0.125436771218    0.050763338562   -0.637535392082
 O   -1.041759228782    0.556986338562   -0.637535392082
 O    1.249507771218    0.646181338562   -0.637535392082
LI   -1.041759228782    0.556986338562    5.362464607918
