8

 C    0.167202771218   -1.505320661438   -0.743791290762
 H    1.202702771218   -1.881408661438   -0.743791290762
 H   -0.365997228782   -1.886023661438    0.144545709238
 H   -0.365997228782   -1.886023661438   -1.632128290762
 C    0.125436771218    0.050763338562   -0.743791290762
 O   -1.041759228782    0.556986338562   -0.743791290762
 O    1.249507771218    0.646181338562   -0.743791290762
LI   -1.041759228782    0.556986338562    6.256208709238
