8

 C    0.167202771218   -1.505320661438   -0.871298369179
 H    1.202702771218   -1.881408661438   -0.871298369179
 H   -0.365997228782   -1.886023661438    0.017038630821
 H   -0.365997228782   -1.886023661438   -1.759635369179
 C    0.125436771218    0.050763338562   -0.871298369179
 O   -1.041759228782    0.556986338562   -0.871298369179
 O    1.249507771218    0.646181338562   -0.871298369179
LI   -1.041759228782    0.556986338562    7.328701630821
