8

 C    0.167202771218   -1.505320661438   -0.913800728651
 H    1.202702771218   -1.881408661438   -0.913800728651
 H   -0.365997228782   -1.886023661438   -0.025463728651
 H   -0.365997228782   -1.886023661438   -1.802137728651
 C    0.125436771218    0.050763338562   -0.913800728651
 O   -1.041759228782    0.556986338562   -0.913800728651
 O    1.249507771218    0.646181338562   -0.913800728651
LI   -1.041759228782    0.556986338562    7.686199271349
