8

 C    0.167202771218   -1.505320661438   -0.977554267859
 H    1.202702771218   -1.881408661438   -0.977554267859
 H   -0.365997228782   -1.886023661438   -0.089217267859
 H   -0.365997228782   -1.886023661438   -1.865891267859
 C    0.125436771218    0.050763338562   -0.977554267859
 O   -1.041759228782    0.556986338562   -0.977554267859
 O    1.249507771218    0.646181338562   -0.977554267859
LI   -1.041759228782    0.556986338562    8.222445732141
