8

 C    0.167202771218   -1.505320661438   -1.041307807067
 H    1.202702771218   -1.881408661438   -1.041307807067
 H   -0.365997228782   -1.886023661438   -0.152970807067
 H   -0.365997228782   -1.886023661438   -1.929644807067
 C    0.125436771218    0.050763338562   -1.041307807067
 O   -1.041759228782    0.556986338562   -1.041307807067
 O    1.249507771218    0.646181338562   -1.041307807067
LI   -1.041759228782    0.556986338562    8.758692192933
