14

 P    0.508919499981   -0.945468578540   -0.985828209757
 O   -0.078080500019    0.104531421460   -0.030828209757
 O    0.242919499981   -0.897468578540   -2.497828209757
 O    2.171919499981   -1.119468578540   -0.698828209757
 O    0.193919499981   -2.503468578540   -0.393828209757
 C    2.908919499981    0.045531421460   -1.075828209757
 H    2.577919499981    0.928531421460   -0.499828209757
 H    2.793919499981    0.256531421460   -2.153828209757
 H    3.968919499981   -0.156468578540   -0.855828209757
 C   -1.197080500019   -2.826468578540   -0.443828209757
 H   -1.575080500019   -2.799468578540   -1.481828209757
 H   -1.790080500019   -2.127468578540    0.172171790243
 H   -1.307080500019   -3.846468578540   -0.043828209757
CS   -0.613129447290    1.061603644006    0.839651764082
