14

 P    0.587697893286   -1.086383932834   -1.113994079615
 O    0.000697893286   -0.036383932834   -0.158994079615
 O    0.321697893286   -1.038383932834   -2.625994079615
 O    2.250697893286   -1.260383932834   -0.826994079615
 O    0.272697893286   -2.644383932834   -0.521994079615
 C    2.987697893286   -0.095383932834   -1.203994079615
 H    2.656697893286    0.787616067166   -0.627994079615
 H    2.872697893286    0.115616067166   -2.281994079615
 H    4.047697893286   -0.297383932834   -0.983994079615
 C   -1.118302106714   -2.967383932834   -0.571994079615
 H   -1.496302106714   -2.940383932834   -1.609994079615
 H   -1.711302106714   -2.268383932834    0.044005920385
 H   -1.228302106714   -3.987383932834   -0.171994079615
CS   -0.687222181776    1.194137496154    0.960194458179
