14

 P    0.646781688265   -1.192070448554   -1.210118482008
 O    0.059781688265   -0.142070448554   -0.255118482008
 O    0.380781688265   -1.144070448554   -2.722118482008
 O    2.309781688265   -1.366070448554   -0.923118482008
 O    0.331781688265   -2.750070448554   -0.618118482008
 C    3.046781688265   -0.201070448554   -1.300118482008
 H    2.715781688265    0.681929551446   -0.724118482008
 H    2.931781688265    0.009929551446   -2.378118482008
 H    4.106781688265   -0.403070448554   -1.080118482008
 C   -1.059218311735   -3.073070448554   -0.668118482008
 H   -1.437218311735   -3.046070448554   -1.706118482008
 H   -1.652218311735   -2.374070448554   -0.052118482008
 H   -1.169218311735   -4.093070448554   -0.268118482008
CS   -0.742791732641    1.293537885264    1.050601478751
