14

 P    0.725560081571   -1.332985802848   -1.338284351866
 O    0.138560081571   -0.282985802848   -0.383284351866
 O    0.459560081571   -1.284985802848   -2.850284351866
 O    2.388560081571   -1.506985802848   -1.051284351866
 O    0.410560081571   -2.890985802848   -0.746284351866
 C    3.125560081571   -0.341985802848   -1.428284351866
 H    2.794560081571    0.541014197152   -0.852284351866
 H    3.010560081571   -0.130985802848   -2.506284351866
 H    4.185560081571   -0.543985802848   -1.208284351866
 C   -0.980439918429   -3.213985802848   -0.796284351866
 H   -1.358439918429   -3.186985802848   -1.834284351866
 H   -1.573439918429   -2.514985802848   -0.180284351866
 H   -1.090439918429   -4.233985802848   -0.396284351866
CS   -0.816884467127    1.426071737412    1.171144172847
