14

 P    0.745254679897   -1.368214641422   -1.370325819330
 O    0.158254679897   -0.318214641422   -0.415325819330
 O    0.479254679897   -1.320214641422   -2.882325819330
 O    2.408254679897   -1.542214641422   -1.083325819330
 O    0.430254679897   -2.926214641422   -0.778325819330
 C    3.145254679897   -0.377214641422   -1.460325819330
 H    2.814254679897    0.505785358578   -0.884325819330
 H    3.030254679897   -0.166214641422   -2.538325819330
 H    4.205254679897   -0.579214641422   -1.240325819330
 C   -0.960745320103   -3.249214641422   -0.828325819330
 H   -1.338745320103   -3.222214641422   -1.866325819330
 H   -1.553745320103   -2.550214641422   -0.212325819330
 H   -1.070745320103   -4.269214641422   -0.428325819330
CS   -0.835407650749    1.459205200449    1.201279846371
