14

 P    0.784643876550   -1.438672318569   -1.434408754259
 O    0.197643876550   -0.388672318569   -0.479408754259
 O    0.518643876550   -1.390672318569   -2.946408754259
 O    2.447643876550   -1.612672318569   -1.147408754259
 O    0.469643876550   -2.996672318569   -0.842408754259
 C    3.184643876550   -0.447672318569   -1.524408754259
 H    2.853643876550    0.435327681431   -0.948408754259
 H    3.069643876550   -0.236672318569   -2.602408754259
 H    4.244643876550   -0.649672318569   -1.304408754259
 C   -0.921356123450   -3.319672318569   -0.892408754259
 H   -1.299356123450   -3.292672318569   -1.930408754259
 H   -1.514356123450   -2.620672318569   -0.276408754259
 H   -1.031356123450   -4.339672318569   -0.492408754259
CS   -0.872454017992    1.525472126523    1.261551193420
