14

 P    0.824033073202   -1.509129995716   -1.498491689188
 O    0.237033073202   -0.459129995716   -0.543491689188
 O    0.558033073202   -1.461129995716   -3.010491689188
 O    2.487033073202   -1.683129995716   -1.211491689188
 O    0.509033073202   -3.067129995716   -0.906491689188
 C    3.224033073202   -0.518129995716   -1.588491689188
 H    2.893033073202    0.364870004284   -1.012491689188
 H    3.109033073202   -0.307129995716   -2.666491689188
 H    4.284033073202   -0.720129995716   -1.368491689188
 C   -0.881966926798   -3.390129995716   -0.956491689188
 H   -1.259966926798   -3.363129995716   -1.994491689188
 H   -1.474966926798   -2.691129995716   -0.340491689188
 H   -0.991966926798   -4.410129995716   -0.556491689188
CS   -0.909500385235    1.591739052597    1.321822540468
