14

 P    0.883116868181   -1.614816511436   -1.594616091581
 O    0.296116868181   -0.564816511436   -0.639616091581
 O    0.617116868181   -1.566816511436   -3.106616091581
 O    2.546116868181   -1.788816511436   -1.307616091581
 O    0.568116868181   -3.172816511436   -1.002616091581
 C    3.283116868181   -0.623816511436   -1.684616091581
 H    2.952116868181    0.259183488564   -1.108616091581
 H    3.168116868181   -0.412816511436   -2.762616091581
 H    4.343116868181   -0.825816511436   -1.464616091581
 C   -0.822883131819   -3.495816511436   -1.052616091581
 H   -1.200883131819   -3.468816511436   -2.090616091581
 H   -1.415883131819   -2.796816511436   -0.436616091581
 H   -0.932883131819   -4.515816511436   -0.652616091581
CS   -0.965069936100    1.691139441708    1.412229561040
