14

 P    0.902811466507   -1.650045350009   -1.626657559046
 O    0.315811466507   -0.600045350009   -0.671657559046
 O    0.636811466507   -1.602045350009   -3.138657559046
 O    2.565811466507   -1.824045350009   -1.339657559046
 O    0.587811466507   -3.208045350009   -1.034657559046
 C    3.302811466507   -0.659045350009   -1.716657559046
 H    2.971811466507    0.223954649991   -1.140657559046
 H    3.187811466507   -0.448045350009   -2.794657559046
 H    4.362811466507   -0.861045350009   -1.496657559046
 C   -0.803188533493   -3.531045350009   -1.084657559046
 H   -1.181188533493   -3.504045350009   -2.122657559046
 H   -1.396188533493   -2.832045350009   -0.468657559046
 H   -0.913188533493   -4.551045350009   -0.684657559046
CS   -0.983593119722    1.724272904745    1.442365234564
