14

 P    0.981589859813   -1.790960704303   -1.754823428903
 O    0.394589859813   -0.740960704303   -0.799823428903
 O    0.715589859813   -1.742960704303   -3.266823428903
 O    2.644589859813   -1.964960704303   -1.467823428903
 O    0.666589859813   -3.348960704303   -1.162823428903
 C    3.381589859813   -0.799960704303   -1.844823428903
 H    3.050589859813    0.083039295697   -1.268823428903
 H    3.266589859813   -0.588960704303   -2.922823428903
 H    4.441589859813   -1.001960704303   -1.624823428903
 C   -0.724410140187   -3.671960704303   -1.212823428903
 H   -1.102410140187   -3.644960704303   -2.250823428903
 H   -1.317410140187   -2.972960704303   -0.596823428903
 H   -0.834410140187   -4.691960704303   -0.812823428903
CS   -1.057685854208    1.856806756893    1.562907928661
