14

 P    1.080062851444   -1.967104897171   -1.915030766226
 O    0.493062851444   -0.917104897171   -0.960030766226
 O    0.814062851444   -1.919104897171   -3.427030766226
 O    2.743062851444   -2.141104897171   -1.628030766226
 O    0.765062851444   -3.525104897171   -1.323030766226
 C    3.480062851444   -0.976104897171   -2.005030766226
 H    3.149062851444   -0.093104897171   -1.429030766226
 H    3.365062851444   -0.765104897171   -3.083030766226
 H    4.540062851444   -1.178104897171   -1.785030766226
 C   -0.625937148556   -3.848104897171   -1.373030766226
 H   -1.003937148556   -3.821104897171   -2.411030766226
 H   -1.218937148556   -3.149104897171   -0.757030766226
 H   -0.735937148556   -4.868104897171   -0.973030766226
CS   -1.150301772316    2.022474072077    1.713586296281
