14

 P    1.158841244749   -2.108020251465   -2.043196636083
 O    0.571841244749   -1.058020251465   -1.088196636083
 O    0.892841244749   -2.060020251465   -3.555196636083
 O    2.821841244749   -2.282020251465   -1.756196636083
 O    0.843841244749   -3.666020251465   -1.451196636083
 C    3.558841244749   -1.117020251465   -2.133196636083
 H    3.227841244749   -0.234020251465   -1.557196636083
 H    3.443841244749   -0.906020251465   -3.211196636083
 H    4.618841244749   -1.319020251465   -1.913196636083
 C   -0.547158755251   -3.989020251465   -1.501196636083
 H   -0.925158755251   -3.962020251465   -2.539196636083
 H   -1.140158755251   -3.290020251465   -0.885196636083
 H   -0.657158755251   -5.009020251465   -1.101196636083
CS   -1.224394506803    2.155007924225    1.834128990377
