14

 P    1.178535843076   -2.143249090038   -2.075238103548
 O    0.591535843076   -1.093249090038   -1.120238103548
 O    0.912535843076   -2.095249090038   -3.587238103548
 O    2.841535843076   -2.317249090038   -1.788238103548
 O    0.863535843076   -3.701249090038   -1.483238103548
 C    3.578535843076   -1.152249090038   -2.165238103548
 H    3.247535843076   -0.269249090038   -1.589238103548
 H    3.463535843076   -0.941249090038   -3.243238103548
 H    4.638535843076   -1.354249090038   -1.945238103548
 C   -0.527464156924   -4.024249090038   -1.533238103548
 H   -0.905464156924   -3.997249090038   -2.571238103548
 H   -1.120464156924   -3.325249090038   -0.917238103548
 H   -0.637464156924   -5.044249090038   -1.133238103548
CS   -1.242917690424    2.188141387262    1.864264663901
