14

 P    1.198230441402   -2.178477928611   -2.107279571012
 O    0.611230441402   -1.128477928611   -1.152279571012
 O    0.932230441402   -2.130477928611   -3.619279571012
 O    2.861230441402   -2.352477928611   -1.820279571012
 O    0.883230441402   -3.736477928611   -1.515279571012
 C    3.598230441402   -1.187477928611   -2.197279571012
 H    3.267230441402   -0.304477928611   -1.621279571012
 H    3.483230441402   -0.976477928611   -3.275279571012
 H    4.658230441402   -1.389477928611   -1.977279571012
 C   -0.507769558598   -4.059477928611   -1.565279571012
 H   -0.885769558598   -4.032477928611   -2.603279571012
 H   -1.100769558598   -3.360477928611   -0.949279571012
 H   -0.617769558598   -5.079477928611   -1.165279571012
CS   -1.261440874046    2.221274850299    1.894400337426
