14

 P    1.277008834707   -2.319393282905   -2.235445440870
 O    0.690008834707   -1.269393282905   -1.280445440870
 O    1.011008834707   -2.271393282905   -3.747445440870
 O    2.940008834707   -2.493393282905   -1.948445440870
 O    0.962008834707   -3.877393282905   -1.643445440870
 C    3.677008834707   -1.328393282905   -2.325445440870
 H    3.346008834707   -0.445393282905   -1.749445440870
 H    3.562008834707   -1.117393282905   -3.403445440870
 H    4.737008834707   -1.530393282905   -2.105445440870
 C   -0.428991165293   -4.200393282905   -1.693445440870
 H   -0.806991165293   -4.173393282905   -2.731445440870
 H   -1.021991165293   -3.501393282905   -1.077445440870
 H   -0.538991165293   -5.220393282905   -1.293445440870
CS   -1.335533608533    2.353808702447    2.014943031522
