14

 P    1.296703433034   -2.354622121479   -2.267486908334
 O    0.709703433034   -1.304622121479   -1.312486908334
 O    1.030703433034   -2.306622121479   -3.779486908334
 O    2.959703433034   -2.528622121479   -1.980486908334
 O    0.981703433034   -3.912622121479   -1.675486908334
 C    3.696703433034   -1.363622121479   -2.357486908334
 H    3.365703433034   -0.480622121479   -1.781486908334
 H    3.581703433034   -1.152622121479   -3.435486908334
 H    4.756703433034   -1.565622121479   -2.137486908334
 C   -0.409296566966   -4.235622121479   -1.725486908334
 H   -0.787296566966   -4.208622121479   -2.763486908334
 H   -1.002296566966   -3.536622121479   -1.109486908334
 H   -0.519296566966   -5.255622121479   -1.325486908334
CS   -1.354056792154    2.386942165484    2.045078705046
