14

 P    1.316398031360   -2.389850960052   -2.299528375799
 O    0.729398031360   -1.339850960052   -1.344528375799
 O    1.050398031360   -2.341850960052   -3.811528375799
 O    2.979398031360   -2.563850960052   -2.012528375799
 O    1.001398031360   -3.947850960052   -1.707528375799
 C    3.716398031360   -1.398850960052   -2.389528375799
 H    3.385398031360   -0.515850960052   -1.813528375799
 H    3.601398031360   -1.187850960052   -3.467528375799
 H    4.776398031360   -1.600850960052   -2.169528375799
 C   -0.389601968640   -4.270850960052   -1.757528375799
 H   -0.767601968640   -4.243850960052   -2.795528375799
 H   -0.982601968640   -3.571850960052   -1.141528375799
 H   -0.499601968640   -5.290850960052   -1.357528375799
CS   -1.372579975776    2.420075628521    2.075214378570
