14

 P    1.355787228013   -2.460308637199   -2.363611310728
 O    0.768787228013   -1.410308637199   -1.408611310728
 O    1.089787228013   -2.412308637199   -3.875611310728
 O    3.018787228013   -2.634308637199   -2.076611310728
 O    1.040787228013   -4.018308637199   -1.771611310728
 C    3.755787228013   -1.469308637199   -2.453611310728
 H    3.424787228013   -0.586308637199   -1.877611310728
 H    3.640787228013   -1.258308637199   -3.531611310728
 H    4.815787228013   -1.671308637199   -2.233611310728
 C   -0.350212771987   -4.341308637199   -1.821611310728
 H   -0.728212771987   -4.314308637199   -2.859611310728
 H   -0.943212771987   -3.642308637199   -1.205611310728
 H   -0.460212771987   -5.361308637199   -1.421611310728
CS   -1.409626343019    2.486342554595    2.135485725618
