14

 P    1.375481826339   -2.495537475773   -2.395652778192
 O    0.788481826339   -1.445537475773   -1.440652778192
 O    1.109481826339   -2.447537475773   -3.907652778192
 O    3.038481826339   -2.669537475773   -2.108652778192
 O    1.060481826339   -4.053537475773   -1.803652778192
 C    3.775481826339   -1.504537475773   -2.485652778192
 H    3.444481826339   -0.621537475773   -1.909652778192
 H    3.660481826339   -1.293537475773   -3.563652778192
 H    4.835481826339   -1.706537475773   -2.265652778192
 C   -0.330518173661   -4.376537475773   -1.853652778192
 H   -0.708518173661   -4.349537475773   -2.891652778192
 H   -0.923518173661   -3.677537475773   -1.237652778192
 H   -0.440518173661   -5.396537475773   -1.453652778192
CS   -1.428149526641    2.519476017632    2.165621399142
