14

 P    1.395176424665   -2.530766314346   -2.427694245657
 O    0.808176424665   -1.480766314346   -1.472694245657
 O    1.129176424665   -2.482766314346   -3.939694245657
 O    3.058176424665   -2.704766314346   -2.140694245657
 O    1.080176424665   -4.088766314346   -1.835694245657
 C    3.795176424665   -1.539766314346   -2.517694245657
 H    3.464176424665   -0.656766314346   -1.941694245657
 H    3.680176424665   -1.328766314346   -3.595694245657
 H    4.855176424665   -1.741766314346   -2.297694245657
 C   -0.310823575335   -4.411766314346   -1.885694245657
 H   -0.688823575335   -4.384766314346   -2.923694245657
 H   -0.903823575335   -3.712766314346   -1.269694245657
 H   -0.420823575335   -5.431766314346   -1.485694245657
CS   -1.446672710262    2.552609480669    2.195757072666
