14

 P    1.434565621318   -2.601223991493   -2.491777180585
 O    0.847565621318   -1.551223991493   -1.536777180585
 O    1.168565621318   -2.553223991493   -4.003777180585
 O    3.097565621318   -2.775223991493   -2.204777180585
 O    1.119565621318   -4.159223991493   -1.899777180585
 C    3.834565621318   -1.610223991493   -2.581777180585
 H    3.503565621318   -0.727223991493   -2.005777180585
 H    3.719565621318   -1.399223991493   -3.659777180585
 H    4.894565621318   -1.812223991493   -2.361777180585
 C   -0.271434378682   -4.482223991493   -1.949777180585
 H   -0.649434378682   -4.455223991493   -2.987777180585
 H   -0.864434378682   -3.783223991493   -1.333777180585
 H   -0.381434378682   -5.502223991493   -1.549777180585
CS   -1.483719077505    2.618876406743    2.256028419715
