14

 P    1.454260219644   -2.636452830067   -2.523818648050
 O    0.867260219644   -1.586452830067   -1.568818648050
 O    1.188260219644   -2.588452830067   -4.035818648050
 O    3.117260219644   -2.810452830067   -2.236818648050
 O    1.139260219644   -4.194452830067   -1.931818648050
 C    3.854260219644   -1.645452830067   -2.613818648050
 H    3.523260219644   -0.762452830067   -2.037818648050
 H    3.739260219644   -1.434452830067   -3.691818648050
 H    4.914260219644   -1.847452830067   -2.393818648050
 C   -0.251739780356   -4.517452830067   -1.981818648050
 H   -0.629739780356   -4.490452830067   -3.019818648050
 H   -0.844739780356   -3.818452830067   -1.365818648050
 H   -0.361739780356   -5.537452830067   -1.581818648050
CS   -1.502242261127    2.652009869780    2.286164093239
