14

 P    1.473954817970   -2.671681668640   -2.555860115514
 O    0.886954817970   -1.621681668640   -1.600860115514
 O    1.207954817970   -2.623681668640   -4.067860115514
 O    3.136954817970   -2.845681668640   -2.268860115514
 O    1.158954817970   -4.229681668640   -1.963860115514
 C    3.873954817970   -1.680681668640   -2.645860115514
 H    3.542954817970   -0.797681668640   -2.069860115514
 H    3.758954817970   -1.469681668640   -3.723860115514
 H    4.933954817970   -1.882681668640   -2.425860115514
 C   -0.232045182030   -4.552681668640   -2.013860115514
 H   -0.610045182030   -4.525681668640   -3.051860115514
 H   -0.825045182030   -3.853681668640   -1.397860115514
 H   -0.342045182030   -5.572681668640   -1.613860115514
CS   -1.520765444749    2.685143332817    2.316299766763
