14

 P    1.552733211276   -2.812597022934   -2.684025985372
 O    0.965733211276   -1.762597022934   -1.729025985372
 O    1.286733211276   -2.764597022934   -4.196025985372
 O    3.215733211276   -2.986597022934   -2.397025985372
 O    1.237733211276   -4.370597022934   -2.092025985372
 C    3.952733211276   -1.821597022934   -2.774025985372
 H    3.621733211276   -0.938597022934   -2.198025985372
 H    3.837733211276   -1.610597022934   -3.852025985372
 H    5.012733211276   -2.023597022934   -2.554025985372
 C   -0.153266788724   -4.693597022934   -2.142025985372
 H   -0.531266788724   -4.666597022934   -3.180025985372
 H   -0.746266788724   -3.994597022934   -1.526025985372
 H   -0.263266788724   -5.713597022934   -1.742025985372
CS   -1.594858179235    2.817677184964    2.436842460859
