14

 P    1.611817006255   -2.918283538654   -2.780150387765
 O    1.024817006255   -1.868283538654   -1.825150387765
 O    1.345817006255   -2.870283538654   -4.292150387765
 O    3.274817006255   -3.092283538654   -2.493150387765
 O    1.296817006255   -4.476283538654   -2.188150387765
 C    4.011817006255   -1.927283538654   -2.870150387765
 H    3.680817006255   -1.044283538654   -2.294150387765
 H    3.896817006255   -1.716283538654   -3.948150387765
 H    5.071817006255   -2.129283538654   -2.650150387765
 C   -0.094182993745   -4.799283538654   -2.238150387765
 H   -0.472182993745   -4.772283538654   -3.276150387765
 H   -0.687182993745   -4.100283538654   -1.622150387765
 H   -0.204182993745   -5.819283538654   -1.838150387765
CS   -1.650427730100    2.917077574075    2.527249481431
