14

 P    1.690595399560   -3.059198892948   -2.908316257623
 O    1.103595399560   -2.009198892948   -1.953316257623
 O    1.424595399560   -3.011198892948   -4.420316257623
 O    3.353595399560   -3.233198892948   -2.621316257623
 O    1.375595399560   -4.617198892948   -2.316316257623
 C    4.090595399560   -2.068198892948   -2.998316257623
 H    3.759595399560   -1.185198892948   -2.422316257623
 H    3.975595399560   -1.857198892948   -4.076316257623
 H    5.150595399560   -2.270198892948   -2.778316257623
 C   -0.015404600440   -4.940198892948   -2.366316257623
 H   -0.393404600440   -4.913198892948   -3.404316257623
 H   -0.608404600440   -4.241198892948   -1.750316257623
 H   -0.125404600440   -5.960198892948   -1.966316257623
CS   -1.724520464586    3.049611426223    2.647792175528
