14

 P    1.749679194539   -3.164885408669   -3.004440660016
 O    1.162679194539   -2.114885408669   -2.049440660016
 O    1.483679194539   -3.116885408669   -4.516440660016
 O    3.412679194539   -3.338885408669   -2.717440660016
 O    1.434679194539   -4.722885408669   -2.412440660016
 C    4.149679194539   -2.173885408669   -3.094440660016
 H    3.818679194539   -1.290885408669   -2.518440660016
 H    4.034679194539   -1.962885408669   -4.172440660016
 H    5.209679194539   -2.375885408669   -2.874440660016
 C    0.043679194539   -5.045885408669   -2.462440660016
 H   -0.334320805461   -5.018885408669   -3.500440660016
 H   -0.549320805461   -4.346885408669   -1.846440660016
 H   -0.066320805461   -6.065885408669   -2.062440660016
CS   -1.780090015451    3.149011815334    2.738199196100
