14

 P    1.769373792865   -3.200114247242   -3.036482127481
 O    1.182373792865   -2.150114247242   -2.081482127481
 O    1.503373792865   -3.152114247242   -4.548482127481
 O    3.432373792865   -3.374114247242   -2.749482127481
 O    1.454373792865   -4.758114247242   -2.444482127481
 C    4.169373792865   -2.209114247242   -3.126482127481
 H    3.838373792865   -1.326114247242   -2.550482127481
 H    4.054373792865   -1.998114247242   -4.204482127481
 H    5.229373792865   -2.411114247242   -2.906482127481
 C    0.063373792865   -5.081114247242   -2.494482127481
 H   -0.314626207135   -5.054114247242   -3.532482127481
 H   -0.529626207135   -4.382114247242   -1.878482127481
 H   -0.046626207135   -6.101114247242   -2.094482127481
CS   -1.798613199073    3.182145278371    2.768334869624
