14

 P    1.789068391191   -3.235343085815   -3.068523594945
 O    1.202068391191   -2.185343085815   -2.113523594945
 O    1.523068391191   -3.187343085815   -4.580523594945
 O    3.452068391191   -3.409343085815   -2.781523594945
 O    1.474068391191   -4.793343085815   -2.476523594945
 C    4.189068391191   -2.244343085815   -3.158523594945
 H    3.858068391191   -1.361343085815   -2.582523594945
 H    4.074068391191   -2.033343085815   -4.236523594945
 H    5.249068391191   -2.446343085815   -2.938523594945
 C    0.083068391191   -5.116343085815   -2.526523594945
 H   -0.294931608809   -5.089343085815   -3.564523594945
 H   -0.509931608809   -4.417343085815   -1.910523594945
 H   -0.026931608809   -6.136343085815   -2.126523594945
CS   -1.817136382694    3.215278741408    2.798470543148
