14

 P    1.848152186170   -3.341029601536   -3.164647997339
 O    1.261152186170   -2.291029601536   -2.209647997339
 O    1.582152186170   -3.293029601536   -4.676647997339
 O    3.511152186170   -3.515029601536   -2.877647997339
 O    1.533152186170   -4.899029601536   -2.572647997339
 C    4.248152186170   -2.350029601536   -3.254647997339
 H    3.917152186170   -1.467029601536   -2.678647997339
 H    4.133152186170   -2.139029601536   -4.332647997339
 H    5.308152186170   -2.552029601536   -3.034647997339
 C    0.142152186170   -5.222029601536   -2.622647997339
 H   -0.235847813830   -5.195029601536   -3.660647997339
 H   -0.450847813830   -4.523029601536   -2.006647997339
 H    0.032152186170   -6.242029601536   -2.222647997339
CS   -1.872705933559    3.314679130519    2.888877563720
