14

 P    1.867846784497   -3.376258440109   -3.196689464803
 O    1.280846784497   -2.326258440109   -2.241689464803
 O    1.601846784497   -3.328258440109   -4.708689464803
 O    3.530846784497   -3.550258440109   -2.909689464803
 O    1.552846784497   -4.934258440109   -2.604689464803
 C    4.267846784497   -2.385258440109   -3.286689464803
 H    3.936846784497   -1.502258440109   -2.710689464803
 H    4.152846784497   -2.174258440109   -4.364689464803
 H    5.327846784497   -2.587258440109   -3.066689464803
 C    0.161846784497   -5.257258440109   -2.654689464803
 H   -0.216153215503   -5.230258440109   -3.692689464803
 H   -0.431153215503   -4.558258440109   -2.038689464803
 H    0.051846784497   -6.277258440109   -2.254689464803
CS   -1.891229117181    3.347812593556    2.919013237245
