14

 P    1.986014374454   -3.587631471550   -3.388938269590
 O    1.399014374454   -2.537631471550   -2.433938269590
 O    1.720014374454   -3.539631471550   -4.900938269590
 O    3.649014374454   -3.761631471550   -3.101938269590
 O    1.671014374454   -5.145631471550   -2.796938269590
 C    4.386014374454   -2.596631471550   -3.478938269590
 H    4.055014374454   -1.713631471550   -2.902938269590
 H    4.271014374454   -2.385631471550   -4.556938269590
 H    5.446014374454   -2.798631471550   -3.258938269590
 C    0.280014374454   -5.468631471550   -2.846938269590
 H   -0.097985625546   -5.441631471550   -3.884938269590
 H   -0.312985625546   -4.769631471550   -2.230938269590
 H    0.170014374454   -6.488631471550   -2.446938269590
CS   -2.002368218911    3.546613371777    3.099827278389
