14

 P    2.005708972781   -3.622860310124   -3.420979737054
 O    1.418708972781   -2.572860310124   -2.465979737054
 O    1.739708972781   -3.574860310124   -4.932979737054
 O    3.668708972781   -3.796860310124   -3.133979737054
 O    1.690708972781   -5.180860310124   -2.828979737054
 C    4.405708972781   -2.631860310124   -3.510979737054
 H    4.074708972781   -1.748860310124   -2.934979737054
 H    4.290708972781   -2.420860310124   -4.588979737054
 H    5.465708972781   -2.833860310124   -3.290979737054
 C    0.299708972781   -5.503860310124   -2.878979737054
 H   -0.078291027219   -5.476860310124   -3.916979737054
 H   -0.293291027219   -4.804860310124   -2.262979737054
 H    0.189708972781   -6.523860310124   -2.478979737054
CS   -2.020891402532    3.579746834814    3.129962951913
