14

 P    2.025403571107   -3.658089148697   -3.453021204519
 O    1.438403571107   -2.608089148697   -2.498021204519
 O    1.759403571107   -3.610089148697   -4.965021204519
 O    3.688403571107   -3.832089148697   -3.166021204519
 O    1.710403571107   -5.216089148697   -2.861021204519
 C    4.425403571107   -2.667089148697   -3.543021204519
 H    4.094403571107   -1.784089148697   -2.967021204519
 H    4.310403571107   -2.456089148697   -4.621021204519
 H    5.485403571107   -2.869089148697   -3.323021204519
 C    0.319403571107   -5.539089148697   -2.911021204519
 H   -0.058596428893   -5.512089148697   -3.949021204519
 H   -0.273596428893   -4.840089148697   -2.295021204519
 H    0.209403571107   -6.559089148697   -2.511021204519
CS   -2.039414586154    3.612880297851    3.160098625437
