14

 P    2.064792767760   -3.728546825844   -3.517104139448
 O    1.477792767760   -2.678546825844   -2.562104139448
 O    1.798792767760   -3.680546825844   -5.029104139448
 O    3.727792767760   -3.902546825844   -3.230104139448
 O    1.749792767760   -5.286546825844   -2.925104139448
 C    4.464792767760   -2.737546825844   -3.607104139448
 H    4.133792767760   -1.854546825844   -3.031104139448
 H    4.349792767760   -2.526546825844   -4.685104139448
 H    5.524792767760   -2.939546825844   -3.387104139448
 C    0.358792767760   -5.609546825844   -2.975104139448
 H   -0.019207232240   -5.582546825844   -4.013104139448
 H   -0.234207232240   -4.910546825844   -2.359104139448
 H    0.248792767760   -6.629546825844   -2.575104139448
CS   -2.076460953397    3.679147223925    3.220369972485
