14

 P    2.084487366086   -3.763775664417   -3.549145606912
 O    1.497487366086   -2.713775664417   -2.594145606912
 O    1.818487366086   -3.715775664417   -5.061145606912
 O    3.747487366086   -3.937775664417   -3.262145606912
 O    1.769487366086   -5.321775664417   -2.957145606912
 C    4.484487366086   -2.772775664417   -3.639145606912
 H    4.153487366086   -1.889775664417   -3.063145606912
 H    4.369487366086   -2.561775664417   -4.717145606912
 H    5.544487366086   -2.974775664417   -3.419145606912
 C    0.378487366086   -5.644775664417   -3.007145606912
 H    0.000487366086   -5.617775664417   -4.045145606912
 H   -0.214512633914   -4.945775664417   -2.391145606912
 H    0.268487366086   -6.664775664417   -2.607145606912
CS   -2.094984137019    3.712280686962    3.250505646009
