14

 P    2.104181964412   -3.799004502991   -3.581187074376
 O    1.517181964412   -2.749004502991   -2.626187074376
 O    1.838181964412   -3.751004502991   -5.093187074376
 O    3.767181964412   -3.973004502991   -3.294187074376
 O    1.789181964412   -5.357004502991   -2.989187074376
 C    4.504181964412   -2.808004502991   -3.671187074376
 H    4.173181964412   -1.925004502991   -3.095187074376
 H    4.389181964412   -2.597004502991   -4.749187074376
 H    5.564181964412   -3.010004502991   -3.451187074376
 C    0.398181964412   -5.680004502991   -3.039187074376
 H    0.020181964412   -5.653004502991   -4.077187074376
 H   -0.194818035588   -4.981004502991   -2.423187074376
 H    0.288181964412   -6.700004502991   -2.639187074376
CS   -2.113507320640    3.745414149999    3.280641319534
