14

 P    2.123876562739   -3.834233341564   -3.613228541841
 O    1.536876562739   -2.784233341564   -2.658228541841
 O    1.857876562739   -3.786233341564   -5.125228541841
 O    3.786876562739   -4.008233341564   -3.326228541841
 O    1.808876562739   -5.392233341564   -3.021228541841
 C    4.523876562739   -2.843233341564   -3.703228541841
 H    4.192876562739   -1.960233341564   -3.127228541841
 H    4.408876562739   -2.632233341564   -4.781228541841
 H    5.583876562739   -3.045233341564   -3.483228541841
 C    0.417876562739   -5.715233341564   -3.071228541841
 H    0.039876562739   -5.688233341564   -4.109228541841
 H   -0.175123437261   -5.016233341564   -2.455228541841
 H    0.307876562739   -6.735233341564   -2.671228541841
CS   -2.132030504262    3.778547613036    3.310776993058
