14

 N    0.596496525842    1.294014299049   -0.000822997244
 C   -0.488950417061    2.116773268877    0.002318873977
 H   -0.297429577179    3.191830241376   -0.000185724565
 C    0.514632805160   -0.125256162677    0.000194671640
 O    1.558376052478   -0.778498052738   -0.002286169672
 N   -0.759205283521   -0.667395794270    0.010807905770
 C   -1.816891396334    0.133956236605    0.008314860942
 N   -3.048884512790   -0.469842792475   -0.037090962267
 H   -3.057818981111   -1.469536678986    0.132479646298
 H   -3.867462256993    0.056585526925    0.237809162530
 C   -1.748309397900    1.575333075800    0.004831427276
 H   -2.636833113585    2.206650667044   -0.004650526751
 H    1.540436648769    1.668662511491   -0.004128893472
NA    3.084176744035   -1.733442604639   -0.005912798538
