14

 N    0.552878166014    1.321313483870   -0.000719322102
 C   -0.532568776889    2.144072453698    0.002422549119
 H   -0.341047937007    3.219129426197   -0.000082049423
 C    0.471014445332   -0.097956977856    0.000298346782
 O    1.514757692650   -0.751198867917   -0.002182494530
 N   -0.802823643349   -0.640096609449    0.010911580912
 C   -1.860509756162    0.161255421426    0.008418536084
 N   -3.092502872618   -0.442543607654   -0.036987287125
 H   -3.101437340939   -1.442237494165    0.132583321440
 H   -3.911080616821    0.083884711746    0.237912837672
 C   -1.791927757728    1.602632260621    0.004935102418
 H   -2.680451473413    2.233949851865   -0.004546851609
 H    1.496818288941    1.695961696312   -0.004025218330
NA    3.294858499468   -1.865300845134   -0.006413561540
