14

 N    0.523799259463    1.339512940418   -0.000650205341
 C   -0.561647683440    2.162271910246    0.002491665880
 H   -0.370126843558    3.237328882745   -0.000012932662
 C    0.441935538781   -0.079757521308    0.000367463543
 O    1.485678786099   -0.732999411369   -0.002113377769
 N   -0.831902549900   -0.621897152901    0.010980697673
 C   -1.889588662713    0.179454877974    0.008487652845
 N   -3.121581779169   -0.424344151106   -0.036918170364
 H   -3.130516247490   -1.424038037617    0.132652438201
 H   -3.940159523372    0.102084168294    0.237981954433
 C   -1.821006664279    1.620831717169    0.005004219179
 H   -2.709530379964    2.252149308413   -0.004477734848
 H    1.467739382390    1.714161152860   -0.003956101569
NA    3.435313003089   -1.953206338798   -0.006747403542
