14

 N    0.465641446360    1.375911853514   -0.000511971819
 C   -0.619805496543    2.198670823342    0.002629899402
 H   -0.428284656661    3.273727795841    0.000125300860
 C    0.383777725678   -0.043358608212    0.000505697065
 O    1.427520972996   -0.696600498273   -0.001975144247
 N   -0.890060363003   -0.585498239805    0.011118931195
 C   -1.947746475816    0.215853791070    0.008625886367
 N   -3.179739592272   -0.387945238010   -0.036779936842
 H   -3.188674060593   -1.387639124521    0.132790671723
 H   -3.998317336475    0.138483081390    0.238120187955
 C   -1.879164477382    1.657230630265    0.005142452701
 H   -2.767688193067    2.288548221509   -0.004339501326
 H    1.409581569287    1.750560065956   -0.003817868047
NA    3.716222010333   -2.129017326125   -0.007415087546
