14

 N    0.451101993084    1.385011581787   -0.000477413438
 C   -0.634344949819    2.207770551615    0.002664457783
 H   -0.442824109937    3.282827524114    0.000159859241
 C    0.369238272402   -0.034258879939    0.000540255446
 O    1.412981519720   -0.687500770000   -0.001940585866
 N   -0.904599816279   -0.576398511532    0.011153489576
 C   -1.962285929092    0.224953519343    0.008660444748
 N   -3.194279045548   -0.378845509737   -0.036745378461
 H   -3.203213513869   -1.378539396248    0.132825230104
 H   -4.012856789751    0.147582809663    0.238154746336
 C   -1.893703930658    1.666330358538    0.005177011082
 H   -2.782227646343    2.297647949782   -0.004304942945
 H    1.395042116011    1.759659794229   -0.003783309666
NA    3.786449262143   -2.172970072956   -0.007582008547
