14

 N    0.436562539809    1.394111310061   -0.000442855058
 C   -0.648884403094    2.216870279889    0.002699016163
 H   -0.457363563212    3.291927252388    0.000194417621
 C    0.354698819127   -0.025159151665    0.000574813826
 O    1.398442066445   -0.678401041726   -0.001906027486
 N   -0.919139269554   -0.567298783258    0.011188047956
 C   -1.976825382367    0.234053247617    0.008695003128
 N   -3.208818498823   -0.369745781463   -0.036710820081
 H   -3.217752967144   -1.369439667974    0.132859788484
 H   -4.027396243026    0.156682537937    0.238189304716
 C   -1.908243383933    1.675430086812    0.005211569462
 H   -2.796767099618    2.306747678056   -0.004270384565
 H    1.380502662736    1.768759522503   -0.003748751286
NA    3.856676513954   -2.216922819788   -0.007748929548
