14

 N    0.422023086533    1.403211038335   -0.000408296677
 C   -0.663423856370    2.225970008163    0.002733574544
 H   -0.471903016488    3.301026980662    0.000228976002
 C    0.340159365851   -0.016059423391    0.000609372207
 O    1.383902613169   -0.669301313452   -0.001871469105
 N   -0.933678722830   -0.558199054984    0.011222606337
 C   -1.991364835643    0.243152975891    0.008729561509
 N   -3.223357952099   -0.360646053189   -0.036676261700
 H   -3.232292420420   -1.360339939700    0.132894346865
 H   -4.041935696302    0.165782266211    0.238223863097
 C   -1.922782837209    1.684529815086    0.005246127843
 H   -2.811306552894    2.315847406330   -0.004235826184
 H    1.365963209460    1.777859250777   -0.003714192905
NA    3.926903765765   -2.260875566620   -0.007915850549
