14

 N    0.305707460327    1.476008864526   -0.000131829633
 C   -0.779739482576    2.298767834354    0.003010041588
 H   -0.588218642694    3.373824806853    0.000505443046
 C    0.223843739645    0.056738402800    0.000885839251
 O    1.267586986963   -0.596503487261   -0.001595002061
 N   -1.049994349036   -0.485401228793    0.011499073381
 C   -2.107680461849    0.315950802082    0.009006028553
 N   -3.339673578305   -0.287848226998   -0.036399794656
 H   -3.348608046626   -1.287542113509    0.133170813909
 H   -4.158251322508    0.238580092402    0.238500330141
 C   -2.039098463415    1.757327641277    0.005522594887
 H   -2.927622179100    2.388645232521   -0.003959359140
 H    1.249647583254    1.850657076968   -0.003437725861
NA    4.488721780252   -2.612497541273   -0.009251218556
