14

 N    0.247549647224    1.512407777622    0.000006403890
 C   -0.837897295679    2.335166747450    0.003148275111
 H   -0.646376455797    3.410223719949    0.000643676569
 C    0.165685926542    0.093137315896    0.001024072774
 O    1.209429173860   -0.560104574165   -0.001456768538
 N   -1.108152162139   -0.449002315697    0.011637306904
 C   -2.165838274952    0.352349715178    0.009144262076
 N   -3.397831391408   -0.251449313902   -0.036261561133
 H   -3.406765859729   -1.251143200413    0.133309047432
 H   -4.216409135611    0.274979005498    0.238638563664
 C   -2.097256276518    1.793726554373    0.005660828410
 H   -2.985779992203    2.425044145617   -0.003821125617
 H    1.191489770151    1.887055990064   -0.003299492338
NA    4.769630787495   -2.788308528600   -0.009918902559
