14

 N    0.233010193948    1.521507505896    0.000040962270
 C   -0.852436748955    2.344266475724    0.003182833491
 H   -0.660915909073    3.419323448223    0.000678234949
 C    0.151146473266    0.102237044170    0.001058631154
 O    1.194889720584   -0.551004845891   -0.001422210158
 N   -1.122691615415   -0.439902587423    0.011671865284
 C   -2.180377728228    0.361449443452    0.009178820456
 N   -3.412370844684   -0.242349585628   -0.036227002753
 H   -3.421305313005   -1.242043472139    0.133343605812
 H   -4.230948588887    0.284078733772    0.238673122044
 C   -2.111795729794    1.802826282647    0.005695386790
 H   -3.000319445479    2.434143873891   -0.003786567237
 H    1.176950316875    1.896155718338   -0.003264933958
NA    4.839858039306   -2.832261275432   -0.010085823560
