14

 N    0.131234021018    1.585205603813    0.000282870934
 C   -0.954212921885    2.407964573641    0.003424742155
 H   -0.762692082003    3.483021546140    0.000920143613
 C    0.049370300336    0.165935142087    0.001300539818
 O    1.093113547654   -0.487306747974   -0.001180301494
 N   -1.224467788345   -0.376204489506    0.011913773948
 C   -2.282153901158    0.425147541369    0.009420729120
 N   -3.514147017614   -0.178651487711   -0.035985094089
 H   -3.523081485935   -1.178345374222    0.133585514476
 H   -4.332724761817    0.347776831689    0.238915030708
 C   -2.213571902724    1.866524380564    0.005937295454
 H   -3.102095618409    2.497841971808   -0.003544658573
 H    1.075174143945    1.959853816255   -0.003023025294
NA    5.331448801981   -3.139930503254   -0.011254270566
