14

 N    0.073076207915    1.621604516908    0.000421104456
 C   -1.012370734988    2.444363486736    0.003562975677
 H   -0.820849895106    3.519420459235    0.001058377135
 C   -0.008787512767    0.202334055182    0.001438773340
 O    1.034955734551   -0.450907834879   -0.001042067972
 N   -1.282625601448   -0.339805576411    0.012052007470
 C   -2.340311714261    0.461546454464    0.009558962642
 N   -3.572304830717   -0.142252574616   -0.035846860567
 H   -3.581239299038   -1.141946461127    0.133723747998
 H   -4.390882574920    0.384175744784    0.239053264230
 C   -2.271729715827    1.902923293659    0.006075528976
 H   -3.160253431512    2.534240884903   -0.003406425051
 H    1.017016330842    1.996252729350   -0.002884791772
NA    5.612357809224   -3.315741490581   -0.011921954570
