14

 N    0.043997301364    1.639803973456    0.000490221217
 C   -1.041449641539    2.462562943284    0.003632092438
 H   -0.849928801657    3.537619915783    0.001127493896
 C   -0.037866419318    0.220533511730    0.001507890101
 O    1.005876828000   -0.432708378331   -0.000972951211
 N   -1.311704507999   -0.321606119863    0.012121124231
 C   -2.369390620812    0.479745911012    0.009628079403
 N   -3.601383737268   -0.124053118068   -0.035777743806
 H   -3.610318205589   -1.123747004579    0.133792864759
 H   -4.419961481471    0.402375201332    0.239122380991
 C   -2.300808622378    1.921122750207    0.006144645737
 H   -3.189332338063    2.552440341451   -0.003337308290
 H    0.987937424291    2.014452185898   -0.002815675011
NA    5.752812312846   -3.403646984244   -0.012255796572
