14

 N    0.029457848088    1.648903701730    0.000524779598
 C   -1.055989094815    2.471662671558    0.003666650819
 H   -0.864468254933    3.546719644057    0.001162052277
 C   -0.052405872594    0.229633240004    0.001542448482
 O    0.991337374724   -0.423608650057   -0.000938392830
 N   -1.326243961275   -0.312506391589    0.012155682612
 C   -2.383930074088    0.488845639286    0.009662637784
 N   -3.615923190544   -0.114953389794   -0.035743185425
 H   -3.624857658865   -1.114647276305    0.133827423140
 H   -4.434500934747    0.411474929606    0.239156939372
 C   -2.315348075654    1.930222478481    0.006179204118
 H   -3.203871791339    2.561540069725   -0.003302749909
 H    0.973397971015    2.023551914172   -0.002781116630
NA    5.823039564657   -3.447599731076   -0.012422717573
