14

 N    0.014918394812    1.658003430004    0.000559337978
 C   -1.070528548091    2.480762399832    0.003701209199
 H   -0.879007708209    3.555819372331    0.001196610657
 C   -0.066945325870    0.238732968278    0.001577006862
 O    0.976797921448   -0.414508921783   -0.000903834450
 N   -1.340783414551   -0.303406663315    0.012190240992
 C   -2.398469527364    0.497945367560    0.009697196164
 N   -3.630462643820   -0.105853661520   -0.035708627045
 H   -3.639397112141   -1.105547548031    0.133861981520
 H   -4.449040388023    0.420574657880    0.239191497752
 C   -2.329887528930    1.939322206755    0.006213762498
 H   -3.218411244615    2.570639797999   -0.003268191529
 H    0.958858517739    2.032651642446   -0.002746558250
NA    5.893266816468   -3.491552477908   -0.012589638574
