14

 N   -0.014160511739    1.676202886552    0.000628454740
 C   -1.099607454642    2.498961856380    0.003770325961
 H   -0.908086614760    3.574018828879    0.001265727419
 C   -0.096024232421    0.256932424826    0.001646123624
 O    0.947719014897   -0.396309465235   -0.000834717688
 N   -1.369862321102   -0.285207206767    0.012259357754
 C   -2.427548433915    0.516144824108    0.009766312926
 N   -3.659541550371   -0.087654204972   -0.035639510283
 H   -3.668476018692   -1.087348091483    0.133931098282
 H   -4.478119294574    0.438774114428    0.239260614514
 C   -2.358966435481    1.957521663303    0.006282879260
 H   -3.247490151166    2.588839254547   -0.003199074767
 H    0.929779611188    2.050851098994   -0.002677441488
NA    6.033721320089   -3.579457971571   -0.012923480575
