14

 N   -0.028699965015    1.685302614826    0.000663013120
 C   -1.114146907918    2.508061584654    0.003804884341
 H   -0.922626068036    3.583118557153    0.001300285799
 C   -0.110563685697    0.266032153100    0.001680682004
 O    0.933179561621   -0.387209736961   -0.000800159308
 N   -1.384401774378   -0.276107478493    0.012293916134
 C   -2.442087887191    0.525244552382    0.009800871306
 N   -3.674081003647   -0.078554476698   -0.035604951903
 H   -3.683015471968   -1.078248363209    0.133965656662
 H   -4.492658747850    0.447873842702    0.239295172894
 C   -2.373505888757    1.966621391577    0.006317437640
 H   -3.262029604442    2.597938982821   -0.003164516387
 H    0.915240157912    2.059950827268   -0.002642883108
NA    6.103948571900   -3.623410718403   -0.013090401576
