14

 N   -0.057778871566    1.703502071373    0.000732129881
 C   -1.143225814469    2.526261041201    0.003874001102
 H   -0.951704974587    3.601318013700    0.001369402560
 C   -0.139642592248    0.284231609647    0.001749798765
 O    0.904100655070   -0.369010280414   -0.000731042547
 N   -1.413480680929   -0.257908021946    0.012363032895
 C   -2.471166793742    0.543444008929    0.009869988067
 N   -3.703159910198   -0.060355020151   -0.035535835142
 H   -3.712094378519   -1.060048906662    0.134034773423
 H   -4.521737654401    0.466073299249    0.239364289655
 C   -2.402584795308    1.984820848124    0.006386554401
 H   -3.291108510993    2.616138439368   -0.003095399626
 H    0.886161251361    2.078150283815   -0.002573766347
NA    6.244403075522   -3.711316212066   -0.013424243578
