14

 N   -0.101397231394    1.730801256195    0.000835805023
 C   -1.186844174297    2.553560226023    0.003977676244
 H   -0.995323334415    3.628617198522    0.001473077702
 C   -0.183260952076    0.311530794469    0.001853473907
 O    0.860482295242   -0.341711095592   -0.000627367405
 N   -1.457099040757   -0.230608837124    0.012466708037
 C   -2.514785153570    0.570743193751    0.009973663209
 N   -3.746778270026   -0.033055835329   -0.035432160000
 H   -3.755712738347   -1.032749721840    0.134138448565
 H   -4.565356014229    0.493372484071    0.239467964797
 C   -2.446203155136    2.012120032946    0.006490229543
 H   -3.334726870821    2.643437624190   -0.002991724484
 H    0.842542891533    2.105449468637   -0.002470091205
NA    6.455084830954   -3.843174452561   -0.013925006581
