14

 N   -0.130476137945    1.749000712743    0.000904921784
 C   -1.215923080848    2.571759682571    0.004046793005
 H   -1.024402240966    3.646816655070    0.001542194463
 C   -0.212339858627    0.329730251017    0.001922590668
 O    0.831403388691   -0.323511639044   -0.000558250644
 N   -1.486177947308   -0.212409380576    0.012535824798
 C   -2.543864060121    0.588942650299    0.010042779970
 N   -3.775857176577   -0.014856378781   -0.035363043239
 H   -3.784791644898   -1.014550265292    0.134207565326
 H   -4.594434920780    0.511571940619    0.239537081558
 C   -2.475282061687    2.030319489494    0.006559346304
 H   -3.363805777372    2.661637080738   -0.002922607723
 H    0.813463984982    2.123648925185   -0.002400974444
NA    6.595539334576   -3.931079946225   -0.014258848583
