14

 N   -0.174094497772    1.776299897564    0.001008596926
 C   -1.259541440675    2.599058867392    0.004150468147
 H   -1.068020600793    3.674115839891    0.001645869605
 C   -0.255958218454    0.357029435838    0.002026265810
 O    0.787785028864   -0.296212454223   -0.000454575502
 N   -1.529796307135   -0.185110195755    0.012639499940
 C   -2.587482419948    0.616241835120    0.010146455112
 N   -3.819475536404    0.012442806040   -0.035259368097
 H   -3.828410004725   -0.987251080471    0.134311240468
 H   -4.638053280607    0.538871125440    0.239640756700
 C   -2.518900421514    2.057618674315    0.006663021446
 H   -3.407424137199    2.688936265559   -0.002818932581
 H    0.769845625155    2.150948110006   -0.002297299302
NA    6.806221090008   -4.062938186720   -0.014759611585
