14

 N   -0.203173404324    1.794499354112    0.001077713687
 C   -1.288620347227    2.617258323940    0.004219584908
 H   -1.097099507345    3.692315296439    0.001714986366
 C   -0.285037125006    0.375228892386    0.002095382571
 O    0.758706122312   -0.278012997675   -0.000385458741
 N   -1.558875213687   -0.166910739207    0.012708616701
 C   -2.616561326500    0.634441291668    0.010215571873
 N   -3.848554442956    0.030642262588   -0.035190251336
 H   -3.857488911277   -0.969051623923    0.134380357229
 H   -4.667132187159    0.557070581988    0.239709873461
 C   -2.547979328066    2.075818130863    0.006732138207
 H   -3.436503043751    2.707135722107   -0.002749815820
 H    0.740766718603    2.169147566554   -0.002228182541
NA    6.946675593630   -4.150843680383   -0.015093453587
