14

 N   -0.217712857600    1.803599082386    0.001112272067
 C   -1.303159800503    2.626358052214    0.004254143288
 H   -1.111638960621    3.701415024713    0.001749544746
 C   -0.299576578282    0.384328620660    0.002129940951
 O    0.744166669036   -0.268913269401   -0.000350900361
 N   -1.573414666963   -0.157811010933    0.012743175081
 C   -2.631100779776    0.643541019942    0.010250130253
 N   -3.863093896232    0.039741990862   -0.035155692956
 H   -3.872028364553   -0.959951895649    0.134414915609
 H   -4.681671640435    0.566170310262    0.239744431841
 C   -2.562518781342    2.084917859137    0.006766696587
 H   -3.451042497027    2.716235450381   -0.002715257440
 H    0.726227265327    2.178247294828   -0.002193624161
NA    7.016902845441   -4.194796427215   -0.015260374588
