14

 N   -0.232252310875    1.812698810660    0.001146830448
 C   -1.317699253778    2.635457780488    0.004288701669
 H   -1.126178413896    3.710514752987    0.001784103127
 C   -0.314116031557    0.393428348934    0.002164499332
 O    0.729627215761   -0.259813541127   -0.000316341980
 N   -1.587954120238   -0.148711282659    0.012777733462
 C   -2.645640233051    0.652640748216    0.010284688634
 N   -3.877633349507    0.048841719136   -0.035121134575
 H   -3.886567817828   -0.950852167375    0.134449473990
 H   -4.696211093710    0.575270038536    0.239778990222
 C   -2.577058234617    2.094017587411    0.006801254968
 H   -3.465581950302    2.725335178655   -0.002680699059
 H    0.711687812052    2.187347023102   -0.002159065780
NA    7.087130097251   -4.238749174047   -0.015427295589
