14

 N   -0.290410123978    1.849097723756    0.001285063970
 C   -1.375857066881    2.671856693584    0.004426935191
 H   -1.184336226999    3.746913666083    0.001922336649
 C   -0.372273844660    0.429827262030    0.002302732854
 O    0.671469402658   -0.223414628031   -0.000178108458
 N   -1.646111933341   -0.112312369563    0.012915966984
 C   -2.703798046154    0.689039661312    0.010422922156
 N   -3.935791162610    0.085240632232   -0.034982901053
 H   -3.944725630931   -0.914453254279    0.134587707512
 H   -4.754368906813    0.611668951632    0.239917223744
 C   -2.635216047720    2.130416500507    0.006939488490
 H   -3.523739763405    2.761734091751   -0.002542465537
 H    0.653529998949    2.223745936198   -0.002020832258
NA    7.368039104495   -4.414560161374   -0.016094979592
