14

 N   -0.319489030530    1.867297180303    0.001354180731
 C   -1.404935973433    2.690056150131    0.004496051952
 H   -1.213415133551    3.765113122630    0.001991453410
 C   -0.401352751212    0.448026718577    0.002371849615
 O    0.642390496106   -0.205215171484   -0.000108991697
 N   -1.675190839893   -0.094112913016    0.012985083745
 C   -2.732876952706    0.707239117859    0.010492038917
 N   -3.964870069162    0.103440088779   -0.034913784292
 H   -3.973804537483   -0.896253797732    0.134656824273
 H   -4.783447813365    0.629868408179    0.239986340505
 C   -2.664294954272    2.148615957054    0.007008605251
 H   -3.552818669957    2.779933548298   -0.002473348776
 H    0.624451092397    2.241945392745   -0.001951715497
NA    7.508493608116   -4.502465655037   -0.016428821594
