14

 N   -0.377646843633    1.903696093399    0.001492414253
 C   -1.463093786536    2.726455063227    0.004634285474
 H   -1.271572946654    3.801512035726    0.002129686932
 C   -0.459510564315    0.484425631673    0.002510083137
 O    0.584232683003   -0.168816258388    0.000029241825
 N   -1.733348652996   -0.057713999920    0.013123317267
 C   -2.791034765809    0.743638030955    0.010630272439
 N   -4.023027882265    0.139839001875   -0.034775550770
 H   -4.031962350586   -0.859854884636    0.134795057795
 H   -4.841605626468    0.666267321275    0.240124574027
 C   -2.722452767375    2.185014870150    0.007146838773
 H   -3.610976483060    2.816332461394   -0.002335115254
 H    0.566293279294    2.278344305841   -0.001813481975
NA    7.789402615359   -4.678276642364   -0.017096505598
