14

 N   -0.450344110011    1.949194734768    0.001665206156
 C   -1.535791052914    2.771953704596    0.004807077377
 H   -1.344270213032    3.847010677095    0.002302478835
 C   -0.532207830693    0.529924273042    0.002682875040
 O    0.511535416625   -0.123317617019    0.000202033728
 N   -1.806045919374   -0.012215358551    0.013296109170
 C   -2.863732032187    0.789136672324    0.010803064342
 N   -4.095725148643    0.185337643244   -0.034602758867
 H   -4.104659616964   -0.814356243267    0.134967849698
 H   -4.914302892846    0.711765962644    0.240297365930
 C   -2.795150033753    2.230513511519    0.007319630676
 H   -3.683673749438    2.861831102763   -0.002162323351
 H    0.493596012916    2.323842947210   -0.001640690072
NA    8.140538874413   -4.898040376523   -0.017931110602
