14

 N   -0.537580829666    2.003793104412    0.001872556439
 C   -1.623027772569    2.826552074240    0.005014427660
 H   -1.431506932687    3.901609046739    0.002509829118
 C   -0.619444550348    0.584522642686    0.002890225323
 O    0.424298696970   -0.068719247375    0.000409384011
 N   -1.893282639029    0.042383011093    0.013503459453
 C   -2.950968751842    0.843735041968    0.011010414625
 N   -4.182961868298    0.239936012888   -0.034395408584
 H   -4.191896336619   -0.759757873623    0.135175199981
 H   -5.001539612501    0.766364332288    0.240504716213
 C   -2.882386753408    2.285111881163    0.007526980959
 H   -3.770910469093    2.916429472407   -0.001954973068
 H    0.406359293261    2.378441316854   -0.001433339789
NA    8.561902385278   -5.161756857513   -0.018932636608
