14

 N   -0.566659736217    2.021992560959    0.001941673201
 C   -1.652106679120    2.844751530787    0.005083544422
 H   -1.460585839238    3.919808503286    0.002578945880
 C   -0.648523456899    0.602722099233    0.002959342085
 O    0.395219790419   -0.050519790828    0.000478500773
 N   -1.922361545580    0.060582467640    0.013572576215
 C   -2.980047658393    0.861934498515    0.011079531387
 N   -4.212040774849    0.258135469435   -0.034326291822
 H   -4.220975243170   -0.741558417076    0.135244316743
 H   -5.030618519052    0.784563788835    0.240573832975
 C   -2.911465659959    2.303311337710    0.007596097721
 H   -3.799989375644    2.934628928954   -0.001885856306
 H    0.377280386710    2.396640773401   -0.001364223027
NA    8.702356888900   -5.249662351176   -0.019266478609
