14

 N   -0.581199189493    2.031092289233    0.001976231581
 C   -1.666646132396    2.853851259061    0.005118102802
 H   -1.475125292514    3.928908231560    0.002613504260
 C   -0.663062910175    0.611821827507    0.002993900465
 O    0.380680337143   -0.041420062554    0.000513059153
 N   -1.936900998856    0.069682195914    0.013607134595
 C   -2.994587111669    0.871034226789    0.011114089767
 N   -4.226580228125    0.267235197709   -0.034291733442
 H   -4.235514696446   -0.732458688802    0.135278875123
 H   -5.045157972328    0.793663517109    0.240608391355
 C   -2.926005113235    2.312411065984    0.007630656101
 H   -3.814528828920    2.943728657228   -0.001851297926
 H    0.362740933434    2.405740501675   -0.001329664647
NA    8.772584140711   -5.293615098008   -0.019433399610
