26

 N    2.306961757562    2.705743956119    0.095544270682
 C    3.527041757562    3.392323956119    0.066524270682
 H    3.448911757562    4.478943956119    0.100434270682
 C    2.220521757562    1.352163956119    0.071284270682
 O    1.091821757562    0.744703956119    0.103224270682
 N    3.398181757562    0.693643956119   -0.001685729318
 H    3.377261757562   -0.325446043881   -0.009785729318
 C    4.730491757562    1.269413956119   -0.036445729318
 O    5.686901757562    0.521673956119   -0.090405729318
 C    4.711001757562    2.728703956119    0.001014270682
 H    5.659331757562    3.264713956119   -0.021435729318
 H    1.437111757562    3.224523956119    0.162124270682
NA   -0.259328242438   -0.227646043881    1.664844270682
NA   -0.120988242438   -0.031746043881   -1.700795729318
 O   -1.013780486341   -0.691464004434   -0.095842011133
 C   -2.142474428249   -1.298930822332   -0.063910787328
 N   -2.228912862651   -2.652506710804   -0.088172149756
 H   -1.359060987927   -3.171282906661   -0.154757994739
 C   -3.448995365940   -3.339090103787   -0.059154574977
 H   -3.370860384675   -4.425716827640   -0.093067541678
 C   -4.632947719945   -2.675476142415    0.006361091997
 H   -5.581287570381   -3.211489713168    0.028805800582
 C   -4.652448769974   -1.216187252750    0.043826483306
 O   -5.608853600585   -0.468448887272    0.097793888991
 N   -3.320133916554   -0.640418174477    0.009064258651
 H   -3.299222880828    0.378685081838    0.017170062323
