26

 N    2.375299911784    2.752355355713    0.102005045649
 C    3.595379911784    3.438935355713    0.072985045649
 H    3.517249911784    4.525555355713    0.106895045649
 C    2.288859911784    1.398775355713    0.077745045649
 O    1.160159911784    0.791315355713    0.109685045649
 N    3.466519911784    0.740255355713    0.004775045649
 H    3.445599911784   -0.278834644287   -0.003324954351
 C    4.798829911784    1.316025355713   -0.029984954351
 O    5.755239911784    0.568285355713   -0.083944954351
 C    4.779339911784    2.775315355713    0.007475045649
 H    5.727669911784    3.311325355713   -0.014974954351
 H    1.505449911784    3.271135355713    0.168585045649
NA   -0.190990088216   -0.181034644287    1.671305045649
NA   -0.052650088216    0.014865355713   -1.694334954351
 O   -1.110166780900   -0.757206196950   -0.104954492529
 C   -2.238860722808   -1.364673014849   -0.073023268725
 N   -2.325299157209   -2.718248903320   -0.097284631153
 H   -1.455447282486   -3.237025099177   -0.163870476135
 C   -3.545381660499   -3.404832296303   -0.068267056373
 H   -3.467246679234   -4.491459020156   -0.102180023075
 C   -4.729334014504   -2.741218334932   -0.002751389400
 H   -5.677673864940   -3.277231905685    0.019693319185
 C   -4.748835064533   -1.281929445266    0.034714001910
 O   -5.705239895144   -0.534191079789    0.088681407595
 N   -3.416520211113   -0.706160366994   -0.000048222745
 H   -3.395609175387    0.312942889321    0.008057580926
