26

 N    2.409468988895    2.775661055510    0.105235433132
 C    3.629548988895    3.462241055510    0.076215433132
 H    3.551418988895    4.548861055510    0.110125433132
 C    2.323028988895    1.422081055510    0.080975433132
 O    1.194328988895    0.814621055510    0.112915433132
 N    3.500688988895    0.763561055510    0.008005433132
 H    3.479768988895   -0.255528944490   -0.000094566868
 C    4.832998988895    1.339331055510   -0.026754566868
 O    5.789408988895    0.591591055510   -0.080714566868
 C    4.813508988895    2.798621055510    0.010705433132
 H    5.761838988895    3.334631055510   -0.011744566868
 H    1.539618988895    3.294441055510    0.171815433132
NA   -0.156821011105   -0.157728944490    1.674535433132
NA   -0.018481011105    0.038171055510   -1.691104566868
 O   -1.158359928179   -0.790077293209   -0.109510733228
 C   -2.287053870087   -1.397544111107   -0.077579509423
 N   -2.373492304489   -2.751119999578   -0.101840871851
 H   -1.503640429765   -3.269896195436   -0.168426716833
 C   -3.593574807779   -3.437703392561   -0.072823297071
 H   -3.515439826513   -4.524330116415   -0.106736263773
 C   -4.777527161784   -2.774089431190   -0.007307630098
 H   -5.725867012220   -3.310103001943    0.015137078487
 C   -4.797028211812   -1.314800541524    0.030157761212
 O   -5.753433042424   -0.567062176047    0.084125166897
 N   -3.464713358393   -0.739031463252   -0.004604463443
 H   -3.443802322666    0.280071793063    0.003501340228
