26

 N    2.682821605783    2.962106653886    0.131078532998
 C    3.902901605783    3.648686653886    0.102058532998
 H    3.824771605783    4.735306653886    0.135968532998
 C    2.596381605783    1.608526653886    0.106818532998
 O    1.467681605783    1.001066653886    0.138758532998
 N    3.774041605783    0.950006653886    0.033848532998
 H    3.753121605783   -0.069083346114    0.025748532998
 C    5.106351605783    1.525776653886   -0.000911467002
 O    6.062761605783    0.778036653886   -0.054871467002
 C    5.086861605783    2.985066653886    0.036548532998
 H    6.035191605783    3.521076653886    0.014098532998
 H    1.812971605783    3.480886653886    0.197658532998
NA    0.116531605783    0.028716653886    1.700378532998
NA    0.254871605783    0.224616653886   -1.665261467002
 O   -1.543905106415   -1.053046063275   -0.145960658813
 C   -2.672599048322   -1.660512881173   -0.114029435008
 N   -2.759037482724   -3.014088769644   -0.138290797436
 H   -1.889185608001   -3.532864965502   -0.204876642419
 C   -3.979119986014   -3.700672162627   -0.109273222657
 H   -3.900985004749   -4.787298886481   -0.143186189358
 C   -5.163072340019   -3.037058201256   -0.043757555683
 H   -6.111412190455   -3.573071772009   -0.021312847098
 C   -5.182573390048   -1.577769311590   -0.006292164374
 O   -6.138978220659   -0.830030946113    0.047675241311
 N   -3.850258536628   -1.002000233318   -0.041054389029
 H   -3.829347500902    0.017103022997   -0.032948585357
