26

 N    2.716990682894    2.985412353683    0.134308920482
 C    3.937070682894    3.671992353683    0.105288920482
 H    3.858940682894    4.758612353683    0.139198920482
 C    2.630550682894    1.631832353683    0.110048920482
 O    1.501850682894    1.024372353683    0.141988920482
 N    3.808210682894    0.973312353683    0.037078920482
 H    3.787290682894   -0.045777646317    0.028978920482
 C    5.140520682894    1.549082353683    0.002318920482
 O    6.096930682894    0.801342353683   -0.051641079518
 C    5.121030682894    3.008372353683    0.039778920482
 H    6.069360682894    3.544382353683    0.017328920482
 H    1.847140682894    3.504192353683    0.200888920482
NA    0.150700682894    0.052022353683    1.703608920482
NA    0.289040682894    0.247922353683   -1.662031079518
 O   -1.592098253694   -1.085917159533   -0.150516899511
 C   -2.720792195602   -1.693383977431   -0.118585675707
 N   -2.807230630004   -3.046959865903   -0.142847038135
 H   -1.937378755280   -3.565736061760   -0.209432883117
 C   -4.027313133293   -3.733543258885   -0.113829463355
 H   -3.949178152028   -4.820169982739   -0.147742430057
 C   -5.211265487298   -3.069929297514   -0.048313796381
 H   -6.159605337734   -3.605942868267   -0.025869087796
 C   -5.230766537327   -1.610640407848   -0.010848405072
 O   -6.187171367938   -0.862902042371    0.043119000613
 N   -3.898451683907   -1.034871329576   -0.045610629727
 H   -3.877540648181   -0.015768073261   -0.037504826056
