26

 N    2.751159760005    3.008718053480    0.137539307965
 C    3.971239760005    3.695298053480    0.108519307965
 H    3.893109760005    4.781918053480    0.142429307965
 C    2.664719760005    1.655138053480    0.113279307965
 O    1.536019760005    1.047678053480    0.145219307965
 N    3.842379760005    0.996618053480    0.040309307965
 H    3.821459760005   -0.022471946520    0.032209307965
 C    5.174689760005    1.572388053480    0.005549307965
 O    6.131099760005    0.824648053480   -0.048410692035
 C    5.155199760005    3.031678053480    0.043009307965
 H    6.103529760005    3.567688053480    0.020559307965
 H    1.881309760005    3.527498053480    0.204119307965
NA    0.184869760005    0.075328053480    1.706839307965
NA    0.323209760005    0.271228053480   -1.658800692035
 O   -1.640291400974   -1.118788255791   -0.155073140209
 C   -2.768985342881   -1.726255073689   -0.123141916405
 N   -2.855423777283   -3.079830962161   -0.147403278833
 H   -1.985571902560   -3.598607158018   -0.213989123815
 C   -4.075506280573   -3.766414355144   -0.118385704053
 H   -3.997371299307   -4.853041078997   -0.152298670755
 C   -5.259458634578   -3.102800393772   -0.052870037080
 H   -6.207798485014   -3.638813964525   -0.030425328495
 C   -5.278959684606   -1.643511504107   -0.015404645770
 O   -6.235364515218   -0.895773138629    0.038562759915
 N   -3.946644831187   -1.067742425834   -0.050166870425
 H   -3.925733795460   -0.048639169519   -0.042061066754
