26

 N    2.887836068448    3.101940852668    0.150460857898
 C    4.107916068448    3.788520852668    0.121440857898
 H    4.029786068448    4.875140852668    0.155350857898
 C    2.801396068448    1.748360852668    0.126200857898
 O    1.672696068448    1.140900852668    0.158140857898
 N    3.979056068448    1.089840852668    0.053230857898
 H    3.958136068448    0.070750852668    0.045130857898
 C    5.311366068448    1.665610852668    0.018470857898
 O    6.267776068448    0.917870852668   -0.035489142102
 C    5.291876068448    3.124900852668    0.055930857898
 H    6.240206068448    3.660910852668    0.033480857898
 H    2.017986068448    3.620720852668    0.217040857898
NA    0.321546068448    0.168550852668    1.719760857898
NA    0.459886068448    0.364450852668   -1.645879142102
 O   -1.833063990091   -1.250272640824   -0.173298103002
 C   -2.961757931999   -1.857739458722   -0.141366879198
 N   -3.048196366401   -3.211315347194   -0.165628241626
 H   -2.178344491677   -3.730091543051   -0.232214086608
 C   -4.268278869691   -3.897898740177   -0.136610666846
 H   -4.190143888425   -4.984525464030   -0.170523633548
 C   -5.452231223696   -3.234284778805   -0.071094999872
 H   -6.400571074132   -3.770298349558   -0.048650291287
 C   -5.471732273724   -1.774995889139   -0.033629608563
 O   -6.428137104336   -1.027257523662    0.020337797122
 N   -4.139417420304   -1.199226810867   -0.068391833218
 H   -4.118506384578   -0.180123554552   -0.060286029547
