26

 N    3.058681454003    3.218469351653    0.166612795315
 C    4.278761454003    3.905049351653    0.137592795315
 H    4.200631454003    4.991669351653    0.171502795315
 C    2.972241454003    1.864889351653    0.142352795315
 O    1.843541454003    1.257429351653    0.174292795315
 N    4.149901454003    1.206369351653    0.069382795315
 H    4.128981454003    0.187279351653    0.061282795315
 C    5.482211454003    1.782139351653    0.034622795315
 O    6.438621454003    1.034399351653   -0.019337204685
 C    5.462721454003    3.241429351653    0.072082795315
 H    6.411051454003    3.777439351653    0.049632795315
 H    2.188831454003    3.737249351653    0.233192795315
NA    0.492391454003    0.285079351653    1.735912795315
NA    0.630731454003    0.480979351653   -1.629727204685
 O   -2.074029726489   -1.414628122115   -0.196079306493
 C   -3.202723668396   -2.022094940013   -0.164148082688
 N   -3.289162102798   -3.375670828485   -0.188409445116
 H   -2.419310228074   -3.894447024342   -0.254995290099
 C   -4.509244606088   -4.062254221468   -0.159391870337
 H   -4.431109624822   -5.148880945321   -0.193304837039
 C   -5.693196960093   -3.398640260096   -0.093876203363
 H   -6.641536810529   -3.934653830849   -0.071431494778
 C   -5.712698010121   -1.939351370431   -0.056410812054
 O   -6.669102840733   -1.191613004953   -0.002443406369
 N   -4.380383156702   -1.363582292158   -0.091173036709
 H   -4.359472120975   -0.344479035843   -0.083067233038
