26

 N    3.127019608225    3.265080751248    0.173073570281
 C    4.347099608225    3.951660751248    0.144053570281
 H    4.268969608225    5.038280751248    0.177963570281
 C    3.040579608225    1.911500751248    0.148813570281
 O    1.911879608225    1.304040751248    0.180753570281
 N    4.218239608225    1.252980751248    0.075843570281
 H    4.197319608225    0.233890751248    0.067743570281
 C    5.550549608225    1.828750751248    0.041083570281
 O    6.506959608225    1.081010751248   -0.012876429719
 C    5.531059608225    3.288040751248    0.078543570281
 H    6.479389608225    3.824050751248    0.056093570281
 H    2.257169608225    3.783860751248    0.239653570281
NA    0.560729608225    0.331690751248    1.742373570281
NA    0.699069608225    0.527590751248   -1.623266429719
 O   -2.170416021047   -1.480370314632   -0.205191787890
 C   -3.299109962955   -2.087837132530   -0.173260564085
 N   -3.385548397357   -3.441413021001   -0.197521926513
 H   -2.515696522633   -3.960189216859   -0.264107771495
 C   -4.605630900647   -4.127996413984   -0.168504351733
 H   -4.527495919381   -5.214623137838   -0.202417318435
 C   -5.789583254651   -3.464382452613   -0.102988684760
 H   -6.737923105088   -4.000396023366   -0.080543976175
 C   -5.809084304680   -2.005093562947   -0.065523293450
 O   -6.765489135292   -1.257355197470   -0.011555887765
 N   -4.476769451260   -1.429324484675   -0.100285518105
 H   -4.455858415534   -0.410221228360   -0.092179714434
