26

 N    3.229526839558    3.334997850639    0.182764732731
 C    4.449606839558    4.021577850639    0.153744732731
 H    4.371476839558    5.108197850639    0.187654732731
 C    3.143086839558    1.981417850639    0.158504732731
 O    2.014386839558    1.373957850639    0.190444732731
 N    4.320746839558    1.322897850639    0.085534732731
 H    4.299826839558    0.303807850639    0.077434732731
 C    5.653056839558    1.898667850639    0.050774732731
 O    6.609466839558    1.150927850639   -0.003185267269
 C    5.633566839558    3.357957850639    0.088234732731
 H    6.581896839558    3.893967850639    0.065784732731
 H    2.359676839558    3.853777850639    0.249344732731
NA    0.663236839558    0.401607850639    1.752064732731
NA    0.801576839558    0.597507850639   -1.613575267269
 O   -2.314995462886   -1.578983603406   -0.218860509984
 C   -3.443689404793   -2.186450421305   -0.186929286179
 N   -3.530127839195   -3.540026309776   -0.211190648607
 H   -2.660275964472   -4.058802505633   -0.277776493590
 C   -4.750210342485   -4.226609702759   -0.182173073828
 H   -4.672075361219   -5.313236426612   -0.216086040529
 C   -5.934162696490   -3.562995741388   -0.116657406854
 H   -6.882502546926   -4.099009312141   -0.094212698269
 C   -5.953663746518   -2.103706851722   -0.079192015545
 O   -6.910068577130   -1.355968486245   -0.025224609860
 N   -4.621348893099   -1.527937773450   -0.113954240200
 H   -4.600437857372   -0.508834517135   -0.105848436528
