26

 N    3.263695916669    3.358303550436    0.185995120214
 C    4.483775916669    4.044883550436    0.156975120214
 H    4.405645916669    5.131503550436    0.190885120214
 C    3.177255916669    2.004723550436    0.161735120214
 O    2.048555916669    1.397263550436    0.193675120214
 N    4.354915916669    1.346203550436    0.088765120214
 H    4.333995916669    0.327113550436    0.080665120214
 C    5.687225916669    1.921973550436    0.054005120214
 O    6.643635916669    1.174233550436    0.000045120214
 C    5.667735916669    3.381263550436    0.091465120214
 H    6.616065916669    3.917273550436    0.069015120214
 H    2.393845916669    3.877083550436    0.252575120214
NA    0.697405916669    0.424913550436    1.755295120214
NA    0.835745916669    0.620813550436   -1.610344879786
 O   -2.363188610165   -1.611854699664   -0.223416750682
 C   -3.491882552073   -2.219321517563   -0.191485526878
 N   -3.578320986474   -3.572897406034   -0.215746889306
 H   -2.708469111751   -4.091673601891   -0.282332734288
 C   -4.798403489764   -4.259480799017   -0.186729314526
 H   -4.720268508499   -5.346107522870   -0.220642281228
 C   -5.982355843769   -3.595866837646   -0.121213647552
 H   -6.930695694205   -4.131880408399   -0.098768938967
 C   -6.001856893798   -2.136577947980   -0.083748256243
 O   -6.958261724409   -1.388839582503   -0.029780850558
 N   -4.669542040378   -1.560808869708   -0.118510480898
 H   -4.648631004652   -0.541705613393   -0.110404677227
