26

 N    3.332034070890    3.404914950030    0.192455895181
 C    4.552114070890    4.091494950030    0.163435895181
 H    4.473984070890    5.178114950030    0.197345895181
 C    3.245594070890    2.051334950030    0.168195895181
 O    2.116894070890    1.443874950030    0.200135895181
 N    4.423254070890    1.392814950030    0.095225895181
 H    4.402334070890    0.373724950030    0.087125895181
 C    5.755564070890    1.968584950030    0.060465895181
 O    6.711974070890    1.220844950030    0.006505895181
 C    5.736074070890    3.427874950030    0.097925895181
 H    6.684404070890    3.963884950030    0.075475895181
 H    2.462184070890    3.923694950030    0.259035895181
NA    0.765744070890    0.471524950030    1.761755895181
NA    0.904084070890    0.667424950030   -1.603884104819
 O   -2.459574904724   -1.677596892181   -0.232529232079
 C   -3.588268846631   -2.285063710079   -0.200598008274
 N   -3.674707281033   -3.638639598551   -0.224859370702
 H   -2.804855406310   -4.157415794408   -0.291445215684
 C   -4.894789784323   -4.325222991534   -0.195841795922
 H   -4.816654803058   -5.411849715387   -0.229754762624
 C   -6.078742138328   -3.661609030162   -0.130326128949
 H   -7.027081988764   -4.197622600915   -0.107881420364
 C   -6.098243188357   -2.202320140496   -0.092860737639
 O   -7.054648018968   -1.454581775019   -0.038893331954
 N   -4.765928334937   -1.626551062224   -0.127622962295
 H   -4.745017299211   -0.607447805909   -0.119517158623
