26

 N    3.571217610667    3.568054848609    0.215068607564
 C    4.791297610667    4.254634848609    0.186048607564
 H    4.713167610667    5.341254848609    0.219958607564
 C    3.484777610667    2.214474848609    0.190808607564
 O    2.356077610667    1.607014848609    0.222748607564
 N    4.662437610667    1.555954848609    0.117838607564
 H    4.641517610667    0.536864848609    0.109738607564
 C    5.994747610667    2.131724848609    0.083078607564
 O    6.951157610667    1.383984848609    0.029118607564
 C    5.975257610667    3.591014848609    0.120538607564
 H    6.923587610667    4.127024848609    0.098088607564
 H    2.701367610667    4.086834848609    0.281648607564
NA    1.004927610667    0.634664848609    1.784368607564
NA    1.143267610667    0.830564848609   -1.581271392436
 O   -2.796926935680   -1.907694565989   -0.264422916966
 C   -3.925620877587   -2.515161383887   -0.232491693161
 N   -4.012059311989   -3.868737272358   -0.256753055589
 H   -3.142207437266   -4.387513468216   -0.323338900572
 C   -5.232141815279   -4.555320665341   -0.227735480810
 H   -5.154006834014   -5.641947389195   -0.261648447511
 C   -6.416094169284   -3.891706703970   -0.162219813836
 H   -7.364434019720   -4.427720274723   -0.139775105251
 C   -6.435595219313   -2.432417814304   -0.124754422527
 O   -7.392000049924   -1.684679448827   -0.070787016842
 N   -5.103280365893   -1.856648736032   -0.159516647182
 H   -5.082369330167   -0.837545479717   -0.151410843510
