26

 N    3.810401150444    3.731194747188    0.237681319947
 C    5.030481150444    4.417774747188    0.208661319947
 H    4.952351150444    5.504394747188    0.242571319947
 C    3.723961150444    2.377614747188    0.213421319947
 O    2.595261150444    1.770154747188    0.245361319947
 N    4.901621150444    1.719094747188    0.140451319947
 H    4.880701150444    0.700004747188    0.132351319947
 C    6.233931150444    2.294864747188    0.105691319947
 O    7.190341150444    1.547124747188    0.051731319947
 C    6.214441150444    3.754154747188    0.143151319947
 H    7.162771150444    4.290164747188    0.120701319947
 H    2.940551150444    4.249974747188    0.304261319947
NA    1.244111150444    0.797804747188    1.806981319947
NA    1.382451150444    0.993704747188   -1.558658680053
 O   -3.134278966636   -2.137792239796   -0.296316601853
 C   -4.262972908543   -2.745259057694   -0.264385378049
 N   -4.349411342945   -4.098834946166   -0.288646740477
 H   -3.479559468222   -4.617611142023   -0.355232585459
 C   -5.569493846235   -4.785418339149   -0.259629165697
 H   -5.491358864970   -5.872045063002   -0.293542132399
 C   -6.753446200240   -4.121804377777   -0.194113498724
 H   -7.701786050676   -4.657817948531   -0.171668790139
 C   -6.772947250269   -2.662515488112   -0.156648107414
 O   -7.729352080880   -1.914777122634   -0.102680701729
 N   -5.440632396849   -2.086746409839   -0.191410332069
 H   -5.419721361123   -1.067643153525   -0.183304528398
