26

 N    3.844570227555    3.754500446985    0.240911707431
 C    5.064650227555    4.441080446985    0.211891707431
 H    4.986520227555    5.527700446985    0.245801707431
 C    3.758130227555    2.400920446985    0.216651707431
 O    2.629430227555    1.793460446985    0.248591707431
 N    4.935790227555    1.742400446985    0.143681707431
 H    4.914870227555    0.723310446985    0.135581707431
 C    6.268100227555    2.318170446985    0.108921707431
 O    7.224510227555    1.570430446985    0.054961707431
 C    6.248610227555    3.777460446985    0.146381707431
 H    7.196940227555    4.313470446985    0.123931707431
 H    2.974720227555    4.273280446985    0.307491707431
NA    1.278280227555    0.821110446985    1.810211707431
NA    1.416620227555    1.017010446985   -1.555428292569
 O   -3.182472113915   -2.170663336054   -0.300872842552
 C   -4.311166055823   -2.778130153953   -0.268941618747
 N   -4.397604490225   -4.131706042424   -0.293202981175
 H   -3.527752615501   -4.650482238281   -0.359788826157
 C   -5.617686993514   -4.818289435407   -0.264185406395
 H   -5.539552012249   -5.904916159260   -0.298098373097
 C   -6.801639347519   -4.154675474036   -0.198669739422
 H   -7.749979197955   -4.690689044789   -0.176225030837
 C   -6.821140397548   -2.695386584370   -0.161204348112
 O   -7.777545228159   -1.947648218893   -0.107236942427
 N   -5.488825544128   -2.119617506098   -0.195966572767
 H   -5.467914508402   -1.100514249783   -0.187860769096
