26

 N    4.322937307108    4.080780244144    0.286137132197
 C    5.543017307108    4.767360244144    0.257117132197
 H    5.464887307108    5.853980244144    0.291027132197
 C    4.236497307108    2.727200244144    0.261877132197
 O    3.107797307108    2.119740244144    0.293817132197
 N    5.414157307108    2.068680244144    0.188907132197
 H    5.393237307108    1.049590244144    0.180807132197
 C    6.746467307108    2.644450244144    0.154147132197
 O    7.702877307108    1.896710244144    0.100187132197
 C    6.726977307108    4.103740244144    0.191607132197
 H    7.675307307108    4.639750244144    0.169157132197
 H    3.453087307108    4.599560244144    0.352717132197
NA    1.756647307108    1.147390244144    1.855437132197
NA    1.894987307108    1.343290244144   -1.510202867803
 O   -3.857176175827   -2.630858683670   -0.364660212326
 C   -4.985870117735   -3.238325501568   -0.332728988522
 N   -5.072308552137   -4.591901390039   -0.356990350950
 H   -4.202456677413   -5.110677585897   -0.423576195932
 C   -6.292391055426   -5.278484783022   -0.327972776170
 H   -6.214256074161   -6.365111506876   -0.361885742872
 C   -7.476343409431   -4.614870821651   -0.262457109196
 H   -8.424683259867   -5.150884392404   -0.240012400611
 C   -7.495844459460   -3.155581931985   -0.224991717887
 O   -8.452249290071   -2.407843566508   -0.171024312202
 N   -6.163529606040   -2.579812853713   -0.259753942542
 H   -6.142618570314   -1.560709597398   -0.251648138871
