26

 N    4.357106384219    4.104085943941    0.289367519680
 C    5.577186384219    4.790665943941    0.260347519680
 H    5.499056384219    5.877285943941    0.294257519680
 C    4.270666384219    2.750505943941    0.265107519680
 O    3.141966384219    2.143045943941    0.297047519680
 N    5.448326384219    2.091985943941    0.192137519680
 H    5.427406384219    1.072895943941    0.184037519680
 C    6.780636384219    2.667755943941    0.157377519680
 O    7.737046384219    1.920015943941    0.103417519680
 C    6.761146384219    4.127045943941    0.194837519680
 H    7.709476384219    4.663055943941    0.172387519680
 H    3.487256384219    4.622865943941    0.355947519680
NA    1.790816384219    1.170695943941    1.858667519680
NA    1.929156384219    1.366595943941   -1.506972480320
 O   -3.905369323107   -2.663729779928   -0.369216453024
 C   -5.034063265014   -3.271196597826   -0.337285229220
 N   -5.120501699416   -4.624772486298   -0.361546591648
 H   -4.250649824693   -5.143548682155   -0.428132436630
 C   -6.340584202706   -5.311355879281   -0.332529016868
 H   -6.262449221440   -6.397982603134   -0.366441983570
 C   -7.524536556711   -4.647741917909   -0.267013349895
 H   -8.472876407147   -5.183755488662   -0.244568641310
 C   -7.544037606739   -3.188453028243   -0.229547958585
 O   -8.500442437351   -2.440714662766   -0.175580552900
 N   -6.211722753320   -2.612683949971   -0.264310183240
 H   -6.190811717593   -1.593580693656   -0.256204379569
