26

 N    4.425444538440    4.150697343535    0.295828294647
 C    5.645524538440    4.837277343535    0.266808294647
 H    5.567394538440    5.923897343535    0.300718294647
 C    4.339004538440    2.797117343535    0.271568294647
 O    3.210304538440    2.189657343535    0.303508294647
 N    5.516664538440    2.138597343535    0.198598294647
 H    5.495744538440    1.119507343535    0.190498294647
 C    6.848974538440    2.714367343535    0.163838294647
 O    7.805384538440    1.966627343535    0.109878294647
 C    6.829484538440    4.173657343535    0.201298294647
 H    7.777814538440    4.709667343535    0.178848294647
 H    3.555594538440    4.669477343535    0.362408294647
NA    1.859154538440    1.217307343535    1.865128294647
NA    1.997494538440    1.413207343535   -1.500511705353
 O   -4.001755617666   -2.729471972444   -0.378328934421
 C   -5.130449559573   -3.336938790343   -0.346397710616
 N   -5.216887993975   -4.690514678814   -0.370659073044
 H   -4.347036119251   -5.209290874671   -0.437244918027
 C   -6.436970497265   -5.377098071797   -0.341641498264
 H   -6.358835515999   -6.463724795650   -0.375554464966
 C   -7.620922851270   -4.713484110426   -0.276125831291
 H   -8.569262701706   -5.249497681179   -0.253681122706
 C   -7.640423901298   -3.254195220760   -0.238660439981
 O   -8.596828731910   -2.506456855283   -0.184693034296
 N   -6.308109047879   -2.678426142488   -0.273422664637
 H   -6.287198012152   -1.659322886173   -0.265316860965
