26

 N    4.527951769773    4.220614442926    0.305519457097
 C    5.748031769773    4.907194442926    0.276499457097
 H    5.669901769773    5.993814442926    0.310409457097
 C    4.441511769773    2.867034442926    0.281259457097
 O    3.312811769773    2.259574442926    0.313199457097
 N    5.619171769773    2.208514442926    0.208289457097
 H    5.598251769773    1.189424442926    0.200189457097
 C    6.951481769773    2.784284442926    0.173529457097
 O    7.907891769773    2.036544442926    0.119569457097
 C    6.931991769773    4.243574442926    0.210989457097
 H    7.880321769773    4.779584442926    0.188539457097
 H    3.658101769773    4.739394442926    0.372099457097
NA    1.961661769773    1.287224442926    1.874819457097
NA    2.100001769773    1.483124442926   -1.490820542903
 O   -4.146335059504   -2.828085261219   -0.391997656515
 C   -5.275029001411   -3.435552079117   -0.360066432711
 N   -5.361467435813   -4.789127967589   -0.384327795139
 H   -4.491615561090   -5.307904163446   -0.450913640121
 C   -6.581549939103   -5.475711360572   -0.355310220359
 H   -6.503414957838   -6.562338084425   -0.389223187061
 C   -7.765502293108   -4.812097399200   -0.289794553386
 H   -8.713842143544   -5.348110969953   -0.267349844801
 C   -7.785003343136   -3.352808509535   -0.252329162076
 O   -8.741408173748   -2.605070144057   -0.198361756391
 N   -6.452688489717   -2.777039431262   -0.287091386731
 H   -6.431777453991   -1.757936174947   -0.278985583060
