26

 N    4.596289923995    4.267225842520    0.311980232063
 C    5.816369923995    4.953805842520    0.282960232063
 H    5.738239923995    6.040425842520    0.316870232063
 C    4.509849923995    2.913645842520    0.287720232063
 O    3.381149923995    2.306185842520    0.319660232063
 N    5.687509923995    2.255125842520    0.214750232063
 H    5.666589923995    1.236035842520    0.206650232063
 C    7.019819923995    2.830895842520    0.179990232063
 O    7.976229923995    2.083155842520    0.126030232063
 C    7.000329923995    4.290185842520    0.217450232063
 H    7.948659923995    4.826195842520    0.195000232063
 H    3.726439923995    4.786005842520    0.378560232063
NA    2.029999923995    1.333835842520    1.881280232063
NA    2.168339923995    1.529735842520   -1.484359767937
 O   -4.242721354063   -2.893827453736   -0.401110137912
 C   -5.371415295970   -3.501294271634   -0.369178914107
 N   -5.457853730372   -4.854870160105   -0.393440276535
 H   -4.588001855649   -5.373646355963   -0.460026121517
 C   -6.677936233662   -5.541453553088   -0.364422701755
 H   -6.599801252396   -6.628080276942   -0.398335668457
 C   -7.861888587667   -4.877839591717   -0.298907034782
 H   -8.810228438103   -5.413853162470   -0.276462326197
 C   -7.881389637695   -3.418550702051   -0.261441643472
 O   -8.837794468307   -2.670812336574   -0.207474237787
 N   -6.549074784276   -2.842781623779   -0.296203868128
 H   -6.528163748549   -1.823678367464   -0.288098064456
