26

 N    4.698797155328    4.337142941911    0.321671394513
 C    5.918877155328    5.023722941911    0.292651394513
 H    5.840747155328    6.110342941911    0.326561394513
 C    4.612357155328    2.983562941911    0.297411394513
 O    3.483657155328    2.376102941911    0.329351394513
 N    5.790017155328    2.325042941911    0.224441394513
 H    5.769097155328    1.305952941911    0.216341394513
 C    7.122327155328    2.900812941911    0.189681394513
 O    8.078737155328    2.153072941911    0.135721394513
 C    7.102837155328    4.360102941911    0.227141394513
 H    8.051167155328    4.896112941911    0.204691394513
 H    3.828947155328    4.855922941911    0.388251394513
NA    2.132507155328    1.403752941911    1.890971394513
NA    2.270847155328    1.599652941911   -1.474668605487
 O   -4.387300795901   -2.992440742510   -0.414778860006
 C   -5.515994737808   -3.599907560409   -0.382847636202
 N   -5.602433172210   -4.953483448880   -0.407108998630
 H   -4.732581297487   -5.472259644737   -0.473694843612
 C   -6.822515675500   -5.640066841863   -0.378091423850
 H   -6.744380694235   -6.726693565716   -0.412004390552
 C   -8.006468029505   -4.976452880492   -0.312575756876
 H   -8.954807879941   -5.512466451245   -0.290131048291
 C   -8.025969079534   -3.517163990826   -0.275110365567
 O   -8.982373910145   -2.769425625349   -0.221142959882
 N   -6.693654226114   -2.941394912554   -0.309872590222
 H   -6.672743190388   -1.922291656239   -0.301766786551
