26

 N    4.801304386661    4.407060041302    0.331362556963
 C    6.021384386661    5.093640041302    0.302342556963
 H    5.943254386661    6.180260041302    0.336252556963
 C    4.714864386661    3.053480041302    0.307102556963
 O    3.586164386661    2.446020041302    0.339042556963
 N    5.892524386661    2.394960041302    0.234132556963
 H    5.871604386661    1.375870041302    0.226032556963
 C    7.224834386661    2.970730041302    0.199372556963
 O    8.181244386661    2.222990041302    0.145412556963
 C    7.205344386661    4.430020041302    0.236832556963
 H    8.153674386661    4.966030041302    0.214382556963
 H    3.931454386661    4.925840041302    0.397942556963
NA    2.235014386661    1.473670041302    1.900662556963
NA    2.373354386661    1.669570041302   -1.464977443037
 O   -4.531880237739   -3.091054031285   -0.428447582101
 C   -5.660574179647   -3.698520849183   -0.396516358296
 N   -5.747012614048   -5.052096737655   -0.420777720724
 H   -4.877160739325   -5.570872933512   -0.487363565707
 C   -6.967095117338   -5.738680130638   -0.391760145945
 H   -6.888960136073   -6.825306854491   -0.425673112646
 C   -8.151047471343   -5.075066169266   -0.326244478971
 H   -9.099387321779   -5.611079740019   -0.303799770386
 C   -8.170548521372   -3.615777279600   -0.288779087662
 O   -9.126953351983   -2.868038914123   -0.234811681976
 N   -6.838233667952   -3.040008201328   -0.323541312317
 H   -6.817322632226   -2.020904945013   -0.315435508645
