26

 N    4.903811617994    4.476977140693    0.341053719413
 C    6.123891617994    5.163557140693    0.312033719413
 H    6.045761617994    6.250177140693    0.345943719413
 C    4.817371617994    3.123397140693    0.316793719413
 O    3.688671617994    2.515937140693    0.348733719413
 N    5.995031617994    2.464877140693    0.243823719413
 H    5.974111617994    1.445787140693    0.235723719413
 C    7.327341617994    3.040647140693    0.209063719413
 O    8.283751617994    2.292907140693    0.155103719413
 C    7.307851617994    4.499937140693    0.246523719413
 H    8.256181617994    5.035947140693    0.224073719413
 H    4.033961617994    4.995757140693    0.407633719413
NA    2.337521617994    1.543587140693    1.910353719413
NA    2.475861617994    1.739487140693   -1.455286280587
 O   -4.676459679577   -3.189667320060   -0.442116304195
 C   -5.805153621485   -3.797134137958   -0.410185080391
 N   -5.891592055887   -5.150710026429   -0.434446442819
 H   -5.021740181163   -5.669486222287   -0.501032287801
 C   -7.111674559177   -5.837293419412   -0.405428868039
 H   -7.033539577911   -6.923920143266   -0.439341834741
 C   -8.295626913182   -5.173679458041   -0.339913201066
 H   -9.243966763618   -5.709693028794   -0.317468492481
 C   -8.315127963210   -3.714390568375   -0.302447809756
 O   -9.271532793822   -2.966652202898   -0.248480404071
 N   -6.982813109790   -3.138621490103   -0.337210034411
 H   -6.961902074064   -2.119518233788   -0.329104230740
