26

 N    4.937980695104    4.500282840490    0.344284106896
 C    6.158060695104    5.186862840490    0.315264106896
 H    6.079930695104    6.273482840490    0.349174106896
 C    4.851540695104    3.146702840490    0.320024106896
 O    3.722840695104    2.539242840490    0.351964106896
 N    6.029200695104    2.488182840490    0.247054106896
 H    6.008280695104    1.469092840490    0.238954106896
 C    7.361510695104    3.063952840490    0.212294106896
 O    8.317920695104    2.316212840490    0.158334106896
 C    7.342020695104    4.523242840490    0.249754106896
 H    8.290350695104    5.059252840490    0.227304106896
 H    4.068130695104    5.019062840490    0.410864106896
NA    2.371690695104    1.566892840490    1.913584106896
NA    2.510030695104    1.762792840490   -1.452055893104
 O   -4.724652826857   -3.222538416318   -0.446672544894
 C   -5.853346768764   -3.830005234216   -0.414741321089
 N   -5.939785203166   -5.183581122688   -0.439002683517
 H   -5.069933328443   -5.702357318545   -0.505588528499
 C   -7.159867706456   -5.870164515671   -0.409985108737
 H   -7.081732725191   -6.956791239524   -0.443898075439
 C   -8.343820060461   -5.206550554299   -0.344469441764
 H   -9.292159910897   -5.742564125052   -0.322024733179
 C   -8.363321110490   -3.747261664633   -0.307004050454
 O   -9.319725941101   -2.999523299156   -0.253036644769
 N   -7.031006257070   -3.171492586361   -0.341766275109
 H   -7.010095221344   -2.152389330046   -0.333660471438
