26

 N    4.972149772215    4.523588540287    0.347514494380
 C    6.192229772215    5.210168540287    0.318494494380
 H    6.114099772215    6.296788540287    0.352404494380
 C    4.885709772215    3.170008540287    0.323254494380
 O    3.757009772215    2.562548540287    0.355194494380
 N    6.063369772215    2.511488540287    0.250284494380
 H    6.042449772215    1.492398540287    0.242184494380
 C    7.395679772215    3.087258540287    0.215524494380
 O    8.352089772215    2.339518540287    0.161564494380
 C    7.376189772215    4.546548540287    0.252984494380
 H    8.324519772215    5.082558540287    0.230534494380
 H    4.102299772215    5.042368540287    0.414094494380
NA    2.405859772215    1.590198540287    1.916814494380
NA    2.544199772215    1.786098540287   -1.448825505620
 O   -4.772845974136   -3.255409512576   -0.451228785592
 C   -5.901539916044   -3.862876330474   -0.419297561787
 N   -5.987978350446   -5.216452218946   -0.443558924215
 H   -5.118126475722   -5.735228414803   -0.510144769198
 C   -7.208060853735   -5.903035611929   -0.414541349435
 H   -7.129925872470   -6.989662335782   -0.448454316137
 C   -8.392013207740   -5.239421650557   -0.349025682462
 H   -9.340353058176   -5.775435221310   -0.326580973877
 C   -8.411514257769   -3.780132760892   -0.311560291153
 O   -9.367919088380   -3.032394395414   -0.257592885467
 N   -7.079199404349   -3.204363682619   -0.346322515808
 H   -7.058288368623   -2.185260426304   -0.338216712136
