26

 N    5.006318849326    4.546894240084    0.350744881863
 C    6.226398849326    5.233474240084    0.321724881863
 H    6.148268849326    6.320094240084    0.355634881863
 C    4.919878849326    3.193314240084    0.326484881863
 O    3.791178849326    2.585854240084    0.358424881863
 N    6.097538849326    2.534794240084    0.253514881863
 H    6.076618849326    1.515704240084    0.245414881863
 C    7.429848849326    3.110564240084    0.218754881863
 O    8.386258849326    2.362824240084    0.164794881863
 C    7.410358849326    4.569854240084    0.256214881863
 H    8.358688849326    5.105864240084    0.233764881863
 H    4.136468849326    5.065674240084    0.417324881863
NA    2.440028849326    1.613504240084    1.920044881863
NA    2.578368849326    1.809404240084   -1.445595118137
 O   -4.821039121416   -3.288280608834   -0.455785026290
 C   -5.949733063323   -3.895747426733   -0.423853802485
 N   -6.036171497725   -5.249323315204   -0.448115164913
 H   -5.166319623002   -5.768099511061   -0.514701009896
 C   -7.256254001015   -5.935906708187   -0.419097590134
 H   -7.178119019749   -7.022533432040   -0.453010556835
 C   -8.440206355020   -5.272292746816   -0.353581923160
 H   -9.388546205456   -5.808306317569   -0.331137214575
 C   -8.459707405048   -3.813003857150   -0.316116531851
 O   -9.416112235660   -3.065265491673   -0.262149126166
 N   -7.127392551629   -3.237234778878   -0.350878756506
 H   -7.106481515902   -2.218131522563   -0.342772952834
