26

 N    5.040487926437    4.570199939881    0.353975269346
 C    6.260567926437    5.256779939881    0.324955269346
 H    6.182437926437    6.343399939881    0.358865269346
 C    4.954047926437    3.216619939881    0.329715269346
 O    3.825347926437    2.609159939881    0.361655269346
 N    6.131707926437    2.558099939881    0.256745269346
 H    6.110787926437    1.539009939881    0.248645269346
 C    7.464017926437    3.133869939881    0.221985269346
 O    8.420427926437    2.386129939881    0.168025269346
 C    7.444527926437    4.593159939881    0.259445269346
 H    8.392857926437    5.129169939881    0.236995269346
 H    4.170637926437    5.088979939881    0.420555269346
NA    2.474197926437    1.636809939881    1.923275269346
NA    2.612537926437    1.832709939881   -1.442364730654
 O   -4.869232268695   -3.321151705093   -0.460341266988
 C   -5.997926210603   -3.928618522991   -0.428410043184
 N   -6.084364645004   -5.282194411462   -0.452671405612
 H   -5.214512770281   -5.800970607320   -0.519257250594
 C   -7.304447148294   -5.968777804445   -0.423653830832
 H   -7.226312167029   -7.055404528299   -0.457566797534
 C   -8.488399502299   -5.305163843074   -0.358138163858
 H   -9.436739352735   -5.841177413827   -0.335693455273
 C   -8.507900552328   -3.845874953408   -0.320672772549
 O   -9.464305382939   -3.098136587931   -0.266705366864
 N   -7.175585698908   -3.270105875136   -0.355434997204
 H   -7.154674663182   -2.251002618821   -0.347329193533
