26

 N    5.074657003548    4.593505639679    0.357205656830
 C    6.294737003548    5.280085639679    0.328185656830
 H    6.216607003548    6.366705639679    0.362095656830
 C    4.988217003548    3.239925639679    0.332945656830
 O    3.859517003548    2.632465639679    0.364885656830
 N    6.165877003548    2.581405639679    0.259975656830
 H    6.144957003548    1.562315639679    0.251875656830
 C    7.498187003548    3.157175639679    0.225215656830
 O    8.454597003548    2.409435639679    0.171255656830
 C    7.478697003548    4.616465639679    0.262675656830
 H    8.427027003548    5.152475639679    0.240225656830
 H    4.204807003548    5.112285639679    0.423785656830
NA    2.508367003548    1.660115639679    1.926505656830
NA    2.646707003548    1.856015639679   -1.439134343170
 O   -4.917425415975   -3.354022801351   -0.464897507686
 C   -6.046119357882   -3.961489619249   -0.432966283882
 N   -6.132557792284   -5.315065507721   -0.457227646310
 H   -5.262705917560   -5.833841703578   -0.523813491292
 C   -7.352640295574   -6.001648900703   -0.428210071530
 H   -7.274505314308   -7.088275624557   -0.462123038232
 C   -8.536592649579   -5.338034939332   -0.362694404557
 H   -9.484932500015   -5.874048510085   -0.340249695972
 C   -8.556093699607   -3.878746049666   -0.325229013247
 O   -9.512498530219   -3.131007684189   -0.271261607562
 N   -7.223778846188   -3.302976971394   -0.359991237902
 H   -7.202867810461   -2.283873715079   -0.351885434231
