26

 N    5.108826080659    4.616811339476    0.360436044313
 C    6.328906080659    5.303391339476    0.331416044313
 H    6.250776080659    6.390011339476    0.365326044313
 C    5.022386080659    3.263231339476    0.336176044313
 O    3.893686080659    2.655771339476    0.368116044313
 N    6.200046080659    2.604711339476    0.263206044313
 H    6.179126080659    1.585621339476    0.255106044313
 C    7.532356080659    3.180481339476    0.228446044313
 O    8.488766080659    2.432741339476    0.174486044313
 C    7.512866080659    4.639771339476    0.265906044313
 H    8.461196080659    5.175781339476    0.243456044313
 H    4.238976080659    5.135591339476    0.427016044313
NA    2.542536080659    1.683421339476    1.929736044313
NA    2.680876080659    1.879321339476   -1.435903955687
 O   -4.965618563254   -3.386893897609   -0.469453748385
 C   -6.094312505162   -3.994360715507   -0.437522524580
 N   -6.180750939563   -5.347936603979   -0.461783887008
 H   -5.310899064840   -5.866712799836   -0.528369731990
 C   -7.400833442853   -6.034519996962   -0.432766312228
 H   -7.322698461588   -7.121146720815   -0.466679278930
 C   -8.584785796858   -5.370906035590   -0.367250645255
 H   -9.533125647294   -5.906919606343   -0.344805936670
 C   -8.604286846887   -3.911617145925   -0.329785253945
 O   -9.560691677498   -3.163878780447   -0.275817848260
 N   -7.271971993467   -3.335848067652   -0.364547478600
 H   -7.251060957741   -2.316744811337   -0.356441674929
