26

 N    5.211333311992    4.686728438867    0.370127206763
 C    6.431413311992    5.373308438867    0.341107206763
 H    6.353283311992    6.459928438867    0.375017206763
 C    5.124893311992    3.333148438867    0.345867206763
 O    3.996193311992    2.725688438867    0.377807206763
 N    6.302553311992    2.674628438867    0.272897206763
 H    6.281633311992    1.655538438867    0.264797206763
 C    7.634863311992    3.250398438867    0.238137206763
 O    8.591273311992    2.502658438867    0.184177206763
 C    7.615373311992    4.709688438867    0.275597206763
 H    8.563703311992    5.245698438867    0.253147206763
 H    4.341483311992    5.205508438867    0.436707206763
NA    2.645043311992    1.753338438867    1.939427206763
NA    2.783383311992    1.949238438867   -1.426212793237
 O   -5.110198005092   -3.485507186384   -0.483122470479
 C   -6.238891947000   -4.092974004282   -0.451191246674
 N   -6.325330381402   -5.446549892753   -0.475452609102
 H   -5.455478506678   -5.965326088611   -0.542038454085
 C   -7.545412884691   -6.133133285736   -0.446435034323
 H   -7.467277903426   -7.219760009590   -0.480348001025
 C   -8.729365238696   -5.469519324365   -0.380919367349
 H   -9.677705089132   -6.005532895118   -0.358474658764
 C   -8.748866288725   -4.010230434699   -0.343453976040
 O   -9.705271119336   -3.262492069222   -0.289486570355
 N   -7.416551435305   -3.434461356427   -0.378216200695
 H   -7.395640399579   -2.415358100112   -0.370110397024
