26

 N    5.313840543325    4.756645538258    0.379818369213
 C    6.533920543325    5.443225538258    0.350798369213
 H    6.455790543325    6.529845538258    0.384708369213
 C    5.227400543325    3.403065538258    0.355558369213
 O    4.098700543325    2.795605538258    0.387498369213
 N    6.405060543325    2.744545538258    0.282588369213
 H    6.384140543325    1.725455538258    0.274488369213
 C    7.737370543325    3.320315538258    0.247828369213
 O    8.693780543325    2.572575538258    0.193868369213
 C    7.717880543325    4.779605538258    0.285288369213
 H    8.666210543325    5.315615538258    0.262838369213
 H    4.443990543325    5.275425538258    0.446398369213
NA    2.747550543325    1.823255538258    1.949118369213
NA    2.885890543325    2.019155538258   -1.416521630787
 O   -5.254777446931   -3.584120475158   -0.496791192574
 C   -6.383471388838   -4.191587293057   -0.464859968769
 N   -6.469909823240   -5.545163181528   -0.489121331197
 H   -5.600057948516   -6.063939377385   -0.555707176179
 C   -7.689992326530   -6.231746574511   -0.460103756417
 H   -7.611857345264   -7.318373298364   -0.494016723119
 C   -8.873944680535   -5.568132613140   -0.394588089444
 H   -9.822284530971   -6.104146183893   -0.372143380859
 C   -8.893445730563   -4.108843723474   -0.357122698134
 O   -9.849850561175   -3.361105357997   -0.303155292449
 N   -7.561130877144   -3.533074645202   -0.391884922790
 H   -7.540219841417   -2.513971388887   -0.383779119118
