17

 C   -1.189649217949   -3.433340941289    0.000000000000
 H   -2.028599217949   -2.731800941289    0.000000000000
 H   -1.230719217949   -4.082470941289    0.885980000000
 H   -1.230719217949   -4.082470941289   -0.885980000000
 C    0.110180782051   -2.694100941289    0.000000000000
 O    0.232000782051   -1.460310941289    0.000000000000
 O    1.166560782051   -3.501150941289    0.000000000000
 H    1.980420782051   -2.964690941289    0.000000000000
LI   -0.053189217949    0.334799058711    0.000000000000
 O   -0.225782217592    1.421174526252    0.000000000000
 C   -0.103962114905    2.654965070340    0.000000000000
 O   -1.160346174852    3.462015558222    0.000000000000
 H   -1.974214122137    2.925549792976    0.000000000000
 C    1.195868938574    3.394208567445    0.000000000000
 H    2.034818685332    2.692661686036    0.000000000000
 H    1.236932697980    4.043332832777   -0.885986605893
 H    1.236932697980    4.043332832777    0.885986605893
