17

 C   -1.182237280535   -3.479994901709    0.000000000000
 H   -2.021187280535   -2.778454901709    0.000000000000
 H   -1.223307280535   -4.129124901709    0.885980000000
 H   -1.223307280535   -4.129124901709   -0.885980000000
 C    0.117592719465   -2.740754901709    0.000000000000
 O    0.239412719465   -1.506964901709    0.000000000000
 O    1.173972719465   -3.547804901709    0.000000000000
 H    1.987832719465   -3.011344901709    0.000000000000
LI   -0.045777280535    0.288145098291    0.000000000000
 O   -0.234060552872    1.473281971972    0.000000000000
 C   -0.112240450185    2.707072516060    0.000000000000
 O   -1.168624510132    3.514123003941    0.000000000000
 H   -1.982492457418    2.977657238695    0.000000000000
 C    1.187590603294    3.446316013165    0.000000000000
 H    2.026540350051    2.744769131755    0.000000000000
 H    1.228654362700    4.095440278496   -0.885986605893
 H    1.228654362700    4.095440278496    0.885986605893
