17

 C   -1.167413405706   -3.573302822550    0.000000000000
 H   -2.006363405706   -2.871762822550    0.000000000000
 H   -1.208483405706   -4.222432822550    0.885980000000
 H   -1.208483405706   -4.222432822550   -0.885980000000
 C    0.132416594294   -2.834062822550    0.000000000000
 O    0.254236594294   -1.600272822550    0.000000000000
 O    1.188796594294   -3.641112822550    0.000000000000
 H    2.002656594294   -3.104652822550    0.000000000000
LI   -0.030953405706    0.194837177450    0.000000000000
 O   -0.250617223432    1.577496863411    0.000000000000
 C   -0.128797120745    2.811287407499    0.000000000000
 O   -1.185181180692    3.618337895380    0.000000000000
 H   -1.999049127978    3.081872130134    0.000000000000
 C    1.171033932734    3.550530904604    0.000000000000
 H    2.009983679491    2.848984023194    0.000000000000
 H    1.212097692139    4.199655169935   -0.885986605893
 H    1.212097692139    4.199655169935    0.885986605893
