17

 C   -1.145177593462   -3.713264703812    0.000000000000
 H   -1.984127593462   -3.011724703812    0.000000000000
 H   -1.186247593462   -4.362394703812    0.885980000000
 H   -1.186247593462   -4.362394703812   -0.885980000000
 C    0.154652406538   -2.974024703812    0.000000000000
 O    0.276472406538   -1.740234703812    0.000000000000
 O    1.211032406538   -3.781074703812    0.000000000000
 H    2.024892406538   -3.244614703812    0.000000000000
LI   -0.008717593462    0.054875296188    0.000000000000
 O   -0.275452229273    1.733819200569    0.000000000000
 C   -0.153632126586    2.967609744658    0.000000000000
 O   -1.210016186533    3.774660232539    0.000000000000
 H   -2.023884133818    3.238194467293    0.000000000000
 C    1.146198926893    3.706853241763    0.000000000000
 H    1.985148673651    3.005306360353    0.000000000000
 H    1.187262686299    4.355977507094   -0.885986605893
 H    1.187262686299    4.355977507094    0.885986605893
