17

 C   -1.130353718633   -3.806572624653    0.000000000000
 H   -1.969303718633   -3.105032624653    0.000000000000
 H   -1.171423718633   -4.455702624653    0.885980000000
 H   -1.171423718633   -4.455702624653   -0.885980000000
 C    0.169476281367   -3.067332624653    0.000000000000
 O    0.291296281367   -1.833542624653    0.000000000000
 O    1.225856281367   -3.874382624653    0.000000000000
 H    2.039716281367   -3.337922624653    0.000000000000
LI    0.006106281367   -0.038432624653    0.000000000000
 O   -0.292008899833    1.838034092009    0.000000000000
 C   -0.170188797146    3.071824636097    0.000000000000
 O   -1.226572857093    3.878875123978    0.000000000000
 H   -2.040440804379    3.342409358732    0.000000000000
 C    1.129642256333    3.811068133202    0.000000000000
 H    1.968592003090    3.109521251792    0.000000000000
 H    1.170706015739    4.460192398533   -0.885986605893
 H    1.170706015739    4.460192398533    0.885986605893
