17

 C   -1.063646281901   -4.226458268437    0.000000000000
 H   -1.902596281901   -3.524918268437    0.000000000000
 H   -1.104716281901   -4.875588268437    0.885980000000
 H   -1.104716281901   -4.875588268437   -0.885980000000
 C    0.236183718099   -3.487218268437    0.000000000000
 O    0.358003718099   -2.253428268437    0.000000000000
 O    1.292563718099   -4.294268268437    0.000000000000
 H    2.106423718099   -3.757808268437    0.000000000000
LI    0.072813718099   -0.458318268437    0.000000000000
 O   -0.366513917354    2.307001103485    0.000000000000
 C   -0.244693814667    3.540791647573    0.000000000000
 O   -1.301077874614    4.347842135454    0.000000000000
 H   -2.114945821900    3.811376370208    0.000000000000
 C    1.055137238811    4.280035144678    0.000000000000
 H    1.894086985569    3.578488263268    0.000000000000
 H    1.096200998217    4.929159410009   -0.885986605893
 H    1.096200998217    4.929159410009    0.885986605893
