17

 C   -1.041410469657   -4.366420149699    0.000000000000
 H   -1.880360469657   -3.664880149699    0.000000000000
 H   -1.082480469657   -5.015550149699    0.885980000000
 H   -1.082480469657   -5.015550149699   -0.885980000000
 C    0.258419530343   -3.627180149699    0.000000000000
 O    0.380239530343   -2.393390149699    0.000000000000
 O    1.314799530343   -4.434230149699    0.000000000000
 H    2.128659530343   -3.897770149699    0.000000000000
LI    0.095049530343   -0.598280149699    0.000000000000
 O   -0.391348923195    2.463323440643    0.000000000000
 C   -0.269528820508    3.697113984731    0.000000000000
 O   -1.325912880455    4.504164472613    0.000000000000
 H   -2.139780827741    3.967698707367    0.000000000000
 C    1.030302232971    4.436357481837    0.000000000000
 H    1.869251979728    3.734810600427    0.000000000000
 H    1.071365992377    5.085481747168   -0.885986605893
 H    1.071365992377    5.085481747168    0.885986605893
