17

 C   -1.033998532243   -4.413074110119    0.000000000000
 H   -1.872948532243   -3.711534110119    0.000000000000
 H   -1.075068532243   -5.062204110119    0.885980000000
 H   -1.075068532243   -5.062204110119   -0.885980000000
 C    0.265831467757   -3.673834110119    0.000000000000
 O    0.387651467757   -2.440044110119    0.000000000000
 O    1.322211467757   -4.480884110119    0.000000000000
 H    2.136071467757   -3.944424110119    0.000000000000
LI    0.102461467757   -0.644934110119    0.000000000000
 O   -0.399627258475    2.515430886363    0.000000000000
 C   -0.277807155788    3.749221430451    0.000000000000
 O   -1.334191215735    4.556271918332    0.000000000000
 H   -2.148059163021    4.019806153087    0.000000000000
 C    1.022023897691    4.488464927556    0.000000000000
 H    1.860973644448    3.786918046146    0.000000000000
 H    1.063087657096    5.137589192887   -0.885986605893
 H    1.063087657096    5.137589192887    0.885986605893
