17

 C   -0.982114970341   -4.739651833063    0.000000000000
 H   -1.821064970341   -4.038111833063    0.000000000000
 H   -1.023184970341   -5.388781833063    0.885980000000
 H   -1.023184970341   -5.388781833063   -0.885980000000
 C    0.317715029659   -4.000411833063    0.000000000000
 O    0.439535029659   -2.766621833063    0.000000000000
 O    1.374095029659   -4.807461833063    0.000000000000
 H    2.187955029659   -4.271001833063    0.000000000000
LI    0.154345029659   -0.971511833063    0.000000000000
 O   -0.457575605436    2.880183006400    0.000000000000
 C   -0.335755502749    4.113973550488    0.000000000000
 O   -1.392139562696    4.921024038369    0.000000000000
 H   -2.206007509982    4.384558273124    0.000000000000
 C    0.964075550730    4.853217047593    0.000000000000
 H    1.803025297487    4.151670166183    0.000000000000
 H    1.005139310135    5.502341312924   -0.885986605893
 H    1.005139310135    5.502341312924    0.885986605893
