17

 C   -0.952467220682   -4.926267674745    0.000000000000
 H   -1.791417220682   -4.224727674745    0.000000000000
 H   -0.993537220682   -5.575397674745    0.885980000000
 H   -0.993537220682   -5.575397674745   -0.885980000000
 C    0.347362779318   -4.187027674745    0.000000000000
 O    0.469182779318   -2.953237674745    0.000000000000
 O    1.403742779318   -4.994077674745    0.000000000000
 H    2.217602779318   -4.457617674745    0.000000000000
LI    0.183992779318   -1.158127674745    0.000000000000
 O   -0.490688946557    3.088612789278    0.000000000000
 C   -0.368868843870    4.322403333366    0.000000000000
 O   -1.425252903817    5.129453821248    0.000000000000
 H   -2.239120851103    4.592988056002    0.000000000000
 C    0.930962209609    5.061646830471    0.000000000000
 H    1.769911956367    4.360099949062    0.000000000000
 H    0.972025969015    5.710771095803   -0.885986605893
 H    0.972025969015    5.710771095803    0.885986605893
