17

 C   -0.937643345853   -5.019575595586    0.000000000000
 H   -1.776593345853   -4.318035595586    0.000000000000
 H   -0.978713345853   -5.668705595586    0.885980000000
 H   -0.978713345853   -5.668705595586   -0.885980000000
 C    0.362186654147   -4.280335595586    0.000000000000
 O    0.484006654147   -3.046545595586    0.000000000000
 O    1.418566654147   -5.087385595586    0.000000000000
 H    2.232426654147   -4.550925595586    0.000000000000
LI    0.198816654147   -1.251435595586    0.000000000000
 O   -0.507245617117    3.192827680717    0.000000000000
 C   -0.385425514430    4.426618224805    0.000000000000
 O   -1.441809574377    5.233668712687    0.000000000000
 H   -2.255677521663    4.697202947441    0.000000000000
 C    0.914405539049    5.165861721910    0.000000000000
 H    1.753355285806    4.464314840501    0.000000000000
 H    0.955469298454    5.814985987242   -0.885986605893
 H    0.955469298454    5.814985987242    0.885986605893
