17

 C   -0.907995596195   -5.206191437268    0.000000000000
 H   -1.746945596195   -4.504651437268    0.000000000000
 H   -0.949065596195   -5.855321437268    0.885980000000
 H   -0.949065596195   -5.855321437268   -0.885980000000
 C    0.391834403805   -4.466951437268    0.000000000000
 O    0.513654403805   -3.233161437268    0.000000000000
 O    1.448214403805   -5.274001437268    0.000000000000
 H    2.262074403805   -4.737541437268    0.000000000000
LI    0.228464403805   -1.438051437268    0.000000000000
 O   -0.540358958238    3.401257463595    0.000000000000
 C   -0.418538855551    4.635048007684    0.000000000000
 O   -1.474922915498    5.442098495565    0.000000000000
 H   -2.288790862783    4.905632730319    0.000000000000
 C    0.881292197928    5.374291504789    0.000000000000
 H    1.720241944686    4.672744623379    0.000000000000
 H    0.922355957334    6.023415770120   -0.885986605893
 H    0.922355957334    6.023415770120    0.885986605893
