17

 C   -0.885759783951   -5.346153318530    0.000000000000
 H   -1.724709783951   -4.644613318530    0.000000000000
 H   -0.926829783951   -5.995283318530    0.885980000000
 H   -0.926829783951   -5.995283318530   -0.885980000000
 C    0.414070216049   -4.606913318530    0.000000000000
 O    0.535890216049   -3.373123318530    0.000000000000
 O    1.470450216049   -5.413963318530    0.000000000000
 H    2.284310216049   -4.877503318530    0.000000000000
LI    0.250700216049   -1.578013318530    0.000000000000
 O   -0.565193964078    3.557579800754    0.000000000000
 C   -0.443373861391    4.791370344842    0.000000000000
 O   -1.499757921338    5.598420832724    0.000000000000
 H   -2.313625868624    5.061955067478    0.000000000000
 C    0.856457192088    5.530613841947    0.000000000000
 H    1.695406938845    4.829066960538    0.000000000000
 H    0.897520951493    6.179738107279   -0.885986605893
 H    0.897520951493    6.179738107279    0.885986605893
