17

 C   -0.870935909122   -5.439461239371    0.000000000000
 H   -1.709885909122   -4.737921239371    0.000000000000
 H   -0.912005909122   -6.088591239371    0.885980000000
 H   -0.912005909122   -6.088591239371   -0.885980000000
 C    0.428894090878   -4.700221239371    0.000000000000
 O    0.550714090878   -3.466431239371    0.000000000000
 O    1.485274090878   -5.507271239371    0.000000000000
 H    2.299134090878   -4.970811239371    0.000000000000
LI    0.265524090878   -1.671321239371    0.000000000000
 O   -0.581750634639    3.661794692193    0.000000000000
 C   -0.459930531951    4.895585236281    0.000000000000
 O   -1.516314591898    5.702635724163    0.000000000000
 H   -2.330182539184    5.166169958917    0.000000000000
 C    0.839900521527    5.634828733387    0.000000000000
 H    1.678850268285    4.933281851977    0.000000000000
 H    0.880964280933    6.283952998718   -0.885986605893
 H    0.880964280933    6.283952998718    0.885986605893
