17

 C   -0.856112034292   -5.532769160212    0.000000000000
 H   -1.695062034292   -4.831229160212    0.000000000000
 H   -0.897182034292   -6.181899160212    0.885980000000
 H   -0.897182034292   -6.181899160212   -0.885980000000
 C    0.443717965708   -4.793529160212    0.000000000000
 O    0.565537965708   -3.559739160212    0.000000000000
 O    1.500097965708   -5.600579160212    0.000000000000
 H    2.313957965708   -5.064119160212    0.000000000000
LI    0.280347965708   -1.764629160212    0.000000000000
 O   -0.598307305199    3.766009583632    0.000000000000
 C   -0.476487202512    4.999800127720    0.000000000000
 O   -1.532871262459    5.806850615602    0.000000000000
 H   -2.346739209745    5.270384850356    0.000000000000
 C    0.823343850967    5.739043624826    0.000000000000
 H    1.662293597725    5.037496743416    0.000000000000
 H    0.864407610373    6.388167890157   -0.885986605893
 H    0.864407610373    6.388167890157    0.885986605893
