17

 C   -0.833876222049   -5.672731041473    0.000000000000
 H   -1.672826222049   -4.971191041473    0.000000000000
 H   -0.874946222049   -6.321861041473    0.885980000000
 H   -0.874946222049   -6.321861041473   -0.885980000000
 C    0.465953777951   -4.933491041473    0.000000000000
 O    0.587773777951   -3.699701041473    0.000000000000
 O    1.522333777951   -5.740541041473    0.000000000000
 H    2.336193777951   -5.204081041473    0.000000000000
LI    0.302583777951   -1.904591041473    0.000000000000
 O   -0.623142311039    3.922331920791    0.000000000000
 C   -0.501322208352    5.156122464879    0.000000000000
 O   -1.557706268299    5.963172952761    0.000000000000
 H   -2.371574215585    5.426707187515    0.000000000000
 C    0.798508845127    5.895365961984    0.000000000000
 H    1.637458591884    5.193819080575    0.000000000000
 H    0.839572604532    6.544490227316   -0.885986605893
 H    0.839572604532    6.544490227316    0.885986605893
