17

 C   -0.826464284634   -5.719385001894    0.000000000000
 H   -1.665414284634   -5.017845001894    0.000000000000
 H   -0.867534284634   -6.368515001894    0.885980000000
 H   -0.867534284634   -6.368515001894   -0.885980000000
 C    0.473365715366   -4.980145001894    0.000000000000
 O    0.595185715366   -3.746355001894    0.000000000000
 O    1.529745715366   -5.787195001894    0.000000000000
 H    2.343605715366   -5.250735001894    0.000000000000
LI    0.309995715366   -1.951245001894    0.000000000000
 O   -0.631420646320    3.974439366511    0.000000000000
 C   -0.509600543632    5.208229910599    0.000000000000
 O   -1.565984603579    6.015280398480    0.000000000000
 H   -2.379852550865    5.478814633234    0.000000000000
 C    0.790230509846    5.947473407704    0.000000000000
 H    1.629180256604    5.245926526294    0.000000000000
 H    0.831294269252    6.596597673035   -0.885986605893
 H    0.831294269252    6.596597673035    0.885986605893
