17

 C   -0.811640409805   -5.812692922735    0.000000000000
 H   -1.650590409805   -5.111152922735    0.000000000000
 H   -0.852710409805   -6.461822922735    0.885980000000
 H   -0.852710409805   -6.461822922735   -0.885980000000
 C    0.488189590195   -5.073452922735    0.000000000000
 O    0.610009590195   -3.839662922735    0.000000000000
 O    1.544569590195   -5.880502922735    0.000000000000
 H    2.358429590195   -5.344042922735    0.000000000000
LI    0.324819590195   -2.044552922735    0.000000000000
 O   -0.647977316880    4.078654257950    0.000000000000
 C   -0.526157214193    5.312444802038    0.000000000000
 O   -1.582541274140    6.119495289919    0.000000000000
 H   -2.396409221425    5.583029524673    0.000000000000
 C    0.773673839286    6.051688299143    0.000000000000
 H    1.612623586044    5.350141417733    0.000000000000
 H    0.814737598692    6.700812564474   -0.885986605893
 H    0.814737598692    6.700812564474    0.885986605893
