17

 C   -0.789404597561   -5.952654803996    0.000000000000
 H   -1.628354597561   -5.251114803996    0.000000000000
 H   -0.830474597561   -6.601784803996    0.885980000000
 H   -0.830474597561   -6.601784803996   -0.885980000000
 C    0.510425402439   -5.213414803996    0.000000000000
 O    0.632245402439   -3.979624803996    0.000000000000
 O    1.566805402439   -6.020464803996    0.000000000000
 H    2.380665402439   -5.484004803996    0.000000000000
LI    0.347055402439   -2.184514803996    0.000000000000
 O   -0.672812322720    4.234976595108    0.000000000000
 C   -0.550992220033    5.468767139197    0.000000000000
 O   -1.607376279980    6.275817627078    0.000000000000
 H   -2.421244227266    5.739351861832    0.000000000000
 C    0.748838833446    6.208010636302    0.000000000000
 H    1.587788580203    5.506463754892    0.000000000000
 H    0.789902592851    6.857134901633   -0.885986605893
 H    0.789902592851    6.857134901633    0.885986605893
