17

 C   -0.781992660146   -5.999308764417    0.000000000000
 H   -1.620942660146   -5.297768764417    0.000000000000
 H   -0.823062660146   -6.648438764417    0.885980000000
 H   -0.823062660146   -6.648438764417   -0.885980000000
 C    0.517837339854   -5.260068764417    0.000000000000
 O    0.639657339854   -4.026278764417    0.000000000000
 O    1.574217339854   -6.067118764417    0.000000000000
 H    2.388077339854   -5.530658764417    0.000000000000
LI    0.354467339854   -2.231168764417    0.000000000000
 O   -0.681090658000    4.287084040828    0.000000000000
 C   -0.559270555313    5.520874584916    0.000000000000
 O   -1.615654615260    6.327925072798    0.000000000000
 H   -2.429522562546    5.791459307552    0.000000000000
 C    0.740560498166    6.260118082021    0.000000000000
 H    1.579510244923    5.558571200612    0.000000000000
 H    0.781624257571    6.909242347352   -0.885986605893
 H    0.781624257571    6.909242347352    0.885986605893
