17

 C   -0.752344910488   -6.185924606099    0.000000000000
 H   -1.591294910488   -5.484384606099    0.000000000000
 H   -0.793414910488   -6.835054606099    0.885980000000
 H   -0.793414910488   -6.835054606099   -0.885980000000
 C    0.547485089512   -5.446684606099    0.000000000000
 O    0.669305089512   -4.212894606099    0.000000000000
 O    1.603865089512   -6.253734606099    0.000000000000
 H    2.417725089512   -5.717274606099    0.000000000000
LI    0.384115089512   -2.417784606099    0.000000000000
 O   -0.714203999121    4.495513823706    0.000000000000
 C   -0.592383896434    5.729304367794    0.000000000000
 O   -1.648767956381    6.536354855676    0.000000000000
 H   -2.462635903667    5.999889090430    0.000000000000
 C    0.707447157045    6.468547864900    0.000000000000
 H    1.546396903802    5.767000983490    0.000000000000
 H    0.748510916451    7.117672130231   -0.885986605893
 H    0.748510916451    7.117672130231    0.885986605893
