17

 C   -0.737521035659   -6.279232526940    0.000000000000
 H   -1.576471035659   -5.577692526940    0.000000000000
 H   -0.778591035659   -6.928362526940    0.885980000000
 H   -0.778591035659   -6.928362526940   -0.885980000000
 C    0.562308964341   -5.539992526940    0.000000000000
 O    0.684128964341   -4.306202526940    0.000000000000
 O    1.618688964341   -6.347042526940    0.000000000000
 H    2.432548964341   -5.810582526940    0.000000000000
LI    0.398938964341   -2.511092526940    0.000000000000
 O   -0.730760669681    4.599728715145    0.000000000000
 C   -0.608940566994    5.833519259233    0.000000000000
 O   -1.665324626941    6.640569747115    0.000000000000
 H   -2.479192574227    6.104103981869    0.000000000000
 C    0.690890486485    6.572762756339    0.000000000000
 H    1.529840233242    5.871215874929    0.000000000000
 H    0.731954245890    7.221887021670   -0.885986605893
 H    0.731954245890    7.221887021670    0.885986605893
