17

 C   -0.707873286000   -6.465848368622    0.000000000000
 H   -1.546823286000   -5.764308368622    0.000000000000
 H   -0.748943286000   -7.114978368622    0.885980000000
 H   -0.748943286000   -7.114978368622   -0.885980000000
 C    0.591956714000   -5.726608368622    0.000000000000
 O    0.713776714000   -4.492818368622    0.000000000000
 O    1.648336714000   -6.533658368622    0.000000000000
 H    2.462196714000   -5.997198368622    0.000000000000
LI    0.428586714000   -2.697708368622    0.000000000000
 O   -0.763874010802    4.808158498024    0.000000000000
 C   -0.642053908115    6.041949042112    0.000000000000
 O   -1.698437968062    6.848999529993    0.000000000000
 H   -2.512305915348    6.312533764747    0.000000000000
 C    0.657777145364    6.781192539217    0.000000000000
 H    1.496726892121    6.079645657807    0.000000000000
 H    0.698840904770    7.430316804548   -0.885986605893
 H    0.698840904770    7.430316804548    0.885986605893
