17

 C   -0.693049411171   -6.559156289463    0.000000000000
 H   -1.531999411171   -5.857616289463    0.000000000000
 H   -0.734119411171   -7.208286289463    0.885980000000
 H   -0.734119411171   -7.208286289463   -0.885980000000
 C    0.606780588829   -5.819916289463    0.000000000000
 O    0.728600588829   -4.586126289463    0.000000000000
 O    1.663160588829   -6.626966289463    0.000000000000
 H    2.477020588829   -6.090506289463    0.000000000000
LI    0.443410588829   -2.791016289463    0.000000000000
 O   -0.780430681362    4.912373389463    0.000000000000
 C   -0.658610578675    6.146163933551    0.000000000000
 O   -1.714994638622    6.953214421432    0.000000000000
 H   -2.528862585908    6.416748656186    0.000000000000
 C    0.641220474804    6.885407430656    0.000000000000
 H    1.480170221561    6.183860549246    0.000000000000
 H    0.682284234209    7.534531695987   -0.885986605893
 H    0.682284234209    7.534531695987    0.885986605893
