17

 C   -0.670813598927   -6.699118170724    0.000000000000
 H   -1.509763598927   -5.997578170724    0.000000000000
 H   -0.711883598927   -7.348248170724    0.885980000000
 H   -0.711883598927   -7.348248170724   -0.885980000000
 C    0.629016401073   -5.959878170724    0.000000000000
 O    0.750836401073   -4.726088170724    0.000000000000
 O    1.685396401073   -6.766928170724    0.000000000000
 H    2.499256401073   -6.230468170724    0.000000000000
LI    0.465646401073   -2.930978170724    0.000000000000
 O   -0.805265687203    5.068695726621    0.000000000000
 C   -0.683445584516    6.302486270710    0.000000000000
 O   -1.739829644463    7.109536758591    0.000000000000
 H   -2.553697591748    6.573070993345    0.000000000000
 C    0.616385468963    7.041729767815    0.000000000000
 H    1.455335215721    6.340182886405    0.000000000000
 H    0.657449228369    7.690854033146   -0.885986605893
 H    0.657449228369    7.690854033146    0.885986605893
