17

 C   -0.663401661513   -6.745772131145    0.000000000000
 H   -1.502351661513   -6.044232131145    0.000000000000
 H   -0.704471661513   -7.394902131145    0.885980000000
 H   -0.704471661513   -7.394902131145   -0.885980000000
 C    0.636428338487   -6.006532131145    0.000000000000
 O    0.758248338487   -4.772742131145    0.000000000000
 O    1.692808338487   -6.813582131145    0.000000000000
 H    2.506668338487   -6.277122131145    0.000000000000
LI    0.473058338487   -2.977632131145    0.000000000000
 O   -0.813544022483    5.120803172341    0.000000000000
 C   -0.691723919796    6.354593716429    0.000000000000
 O   -1.748107979743    7.161644204311    0.000000000000
 H   -2.561975927029    6.625178439065    0.000000000000
 C    0.608107133683    7.093837213534    0.000000000000
 H    1.447056880440    6.392290332125    0.000000000000
 H    0.649170893089    7.742961478865   -0.885986605893
 H    0.649170893089    7.742961478865    0.885986605893
