17

 C   -0.648577786684   -6.839080051986    0.000000000000
 H   -1.487527786684   -6.137540051986    0.000000000000
 H   -0.689647786684   -7.488210051986    0.885980000000
 H   -0.689647786684   -7.488210051986   -0.885980000000
 C    0.651252213316   -6.099840051986    0.000000000000
 O    0.773072213316   -4.866050051986    0.000000000000
 O    1.707632213316   -6.906890051986    0.000000000000
 H    2.521492213316   -6.370430051986    0.000000000000
LI    0.487882213316   -3.070940051986    0.000000000000
 O   -0.830100693043    5.225018063780    0.000000000000
 C   -0.708280590356    6.458808607868    0.000000000000
 O   -1.764664650303    7.265859095750    0.000000000000
 H   -2.578532597589    6.729393330504    0.000000000000
 C    0.591550463123    7.198052104973    0.000000000000
 H    1.430500209880    6.496505223564    0.000000000000
 H    0.632614222528    7.847176370305   -0.885986605893
 H    0.632614222528    7.847176370305    0.885986605893
