17

 C   -0.641165849269   -6.885734012406    0.000000000000
 H   -1.480115849269   -6.184194012406    0.000000000000
 H   -0.682235849269   -7.534864012406    0.885980000000
 H   -0.682235849269   -7.534864012406   -0.885980000000
 C    0.658664150731   -6.146494012406    0.000000000000
 O    0.780484150731   -4.912704012406    0.000000000000
 O    1.715044150731   -6.953544012406    0.000000000000
 H    2.528904150731   -6.417084012406    0.000000000000
LI    0.495294150731   -3.117594012406    0.000000000000
 O   -0.838379028323    5.277125509500    0.000000000000
 C   -0.716558925636    6.510916053588    0.000000000000
 O   -1.772942985583    7.317966541469    0.000000000000
 H   -2.586810932869    6.781500776223    0.000000000000
 C    0.583272127843    7.250159550693    0.000000000000
 H    1.422221874600    6.548612669283    0.000000000000
 H    0.624335887248    7.899283816024   -0.885986605893
 H    0.624335887248    7.899283816024    0.885986605893
