17

 C   -0.626341974440   -6.979041933247    0.000000000000
 H   -1.465291974440   -6.277501933247    0.000000000000
 H   -0.667411974440   -7.628171933247    0.885980000000
 H   -0.667411974440   -7.628171933247   -0.885980000000
 C    0.673488025560   -6.239801933247    0.000000000000
 O    0.795308025560   -5.006011933247    0.000000000000
 O    1.729868025560   -7.046851933247    0.000000000000
 H    2.543728025560   -6.510391933247    0.000000000000
LI    0.510118025560   -3.210901933247    0.000000000000
 O   -0.854935698884    5.381340400939    0.000000000000
 C   -0.733115596197    6.615130945027    0.000000000000
 O   -1.789499656144    7.422181432908    0.000000000000
 H   -2.603367603429    6.885715667663    0.000000000000
 C    0.566715457282    7.354374442132    0.000000000000
 H    1.405665204040    6.652827560722    0.000000000000
 H    0.607779216688    8.003498707463   -0.885986605893
 H    0.607779216688    8.003498707463    0.885986605893
