17

 C   -0.596694224781   -7.165657774929    0.000000000000
 H   -1.435644224781   -6.464117774929    0.000000000000
 H   -0.637764224781   -7.814787774929    0.885980000000
 H   -0.637764224781   -7.814787774929   -0.885980000000
 C    0.703135775219   -6.426417774929    0.000000000000
 O    0.824955775219   -5.192627774929    0.000000000000
 O    1.759515775219   -7.233467774929    0.000000000000
 H    2.573375775219   -6.697007774929    0.000000000000
LI    0.539765775219   -3.397517774929    0.000000000000
 O   -0.888049040004    5.589770183817    0.000000000000
 C   -0.766228937317    6.823560727905    0.000000000000
 O   -1.822612997264    7.630611215787    0.000000000000
 H   -2.636480944550    7.094145450541    0.000000000000
 C    0.533602116162    7.562804225010    0.000000000000
 H    1.372551862919    6.861257343601    0.000000000000
 H    0.574665875567    8.211928490342   -0.885986605893
 H    0.574665875567    8.211928490342    0.885986605893
