17

 C   -0.567046475123   -7.352273616612    0.000000000000
 H   -1.405996475123   -6.650733616612    0.000000000000
 H   -0.608116475123   -8.001403616612    0.885980000000
 H   -0.608116475123   -8.001403616612   -0.885980000000
 C    0.732783524877   -6.613033616612    0.000000000000
 O    0.854603524877   -5.379243616612    0.000000000000
 O    1.789163524877   -7.420083616612    0.000000000000
 H    2.603023524877   -6.883623616612    0.000000000000
LI    0.569413524877   -3.584133616612    0.000000000000
 O   -0.921162381125    5.798199966695    0.000000000000
 C   -0.799342278438    7.031990510783    0.000000000000
 O   -1.855726338385    7.839040998665    0.000000000000
 H   -2.669594285671    7.302575233419    0.000000000000
 C    0.500488775041    7.771234007889    0.000000000000
 H    1.339438521798    7.069687126479    0.000000000000
 H    0.541552534447    8.420358273220   -0.885986605893
 H    0.541552534447    8.420358273220    0.885986605893
