17

 C   -0.552222600294   -7.445581537453    0.000000000000
 H   -1.391172600294   -6.744041537453    0.000000000000
 H   -0.593292600294   -8.094711537453    0.885980000000
 H   -0.593292600294   -8.094711537453   -0.885980000000
 C    0.747607399706   -6.706341537453    0.000000000000
 O    0.869427399706   -5.472551537453    0.000000000000
 O    1.803987399706   -7.513391537453    0.000000000000
 H    2.617847399706   -6.976931537453    0.000000000000
LI    0.584237399706   -3.677441537453    0.000000000000
 O   -0.937719051685    5.902414858134    0.000000000000
 C   -0.815898948998    7.136205402223    0.000000000000
 O   -1.872283008945    7.943255890104    0.000000000000
 H   -2.686150956231    7.406790124858    0.000000000000
 C    0.483932104481    7.875448899328    0.000000000000
 H    1.322881851238    7.173902017918    0.000000000000
 H    0.524995863886    8.524573164659   -0.885986605893
 H    0.524995863886    8.524573164659    0.885986605893
