16

 N   -2.132458085240   -0.509841889934   -0.017554087475
 C   -0.900332352973   -1.140132169942   -0.016599127167
 N   -0.630191416847   -2.461017644910   -0.020063316114
 C    0.697937751616   -2.679211537660   -0.004495887451
 H    1.011746034586   -3.725890270150   -0.001116316760
 N    1.710287194657   -1.771230580519    0.009475382824
 C    1.398070450750   -0.460409497270    0.004828978924
 N    2.405697405552    0.464089140035   -0.036992858007
 H    3.337148942939    0.133559031283    0.185465076126
 H    2.172959899525    1.424059895074    0.187817387433
 C    0.032569609876   -0.083715643403   -0.003942108791
 N   -0.590959701315    1.155250057227    0.005936100227
 C   -1.890885188472    0.847170668866   -0.002518752931
 H   -2.700938717259    1.573751469968    0.001529384932
 H   -3.036247762410   -0.970099013768   -0.025157143408
 K   -0.090205247908    2.245693757800    0.019259510994
