16

 N   -2.160488557566   -0.570881091410   -0.018299885129
 C   -0.928362825299   -1.201171371418   -0.017344924821
 N   -0.658221889173   -2.522056846386   -0.020809113768
 C    0.669907279290   -2.740250739136   -0.005241685105
 H    0.983715562260   -3.786929471626   -0.001862114414
 N    1.682256722331   -1.832269781995    0.008729585170
 C    1.370039978424   -0.521448698746    0.004083181270
 N    2.377666933226    0.403049938559   -0.037738655661
 H    3.309118470613    0.072519829807    0.184719278472
 H    2.144929427199    1.363020693598    0.187071589779
 C    0.004539137550   -0.144754844879   -0.004687906445
 N   -0.618990173641    1.094210855751    0.005190302573
 C   -1.918915660798    0.786131467390   -0.003264550585
 H   -2.728969189585    1.512712268492    0.000783587278
 H   -3.064278234736   -1.031138215244   -0.025902941062
 K    0.006952893118    2.457265481467    0.021844566031
