16

 N   -2.188519029892   -0.631920292886   -0.019045682783
 C   -0.956393297625   -1.262210572894   -0.018090722475
 N   -0.686252361499   -2.583096047862   -0.021554911422
 C    0.641876806964   -2.801289940612   -0.005987482759
 H    0.955685089934   -3.847968673102   -0.002607912068
 N    1.654226250005   -1.893308983471    0.007983787516
 C    1.342009506098   -0.582487900222    0.003337383616
 N    2.349636460900    0.342010737083   -0.038484453315
 H    3.281087998287    0.011480628331    0.183973480818
 H    2.116898954873    1.301981492122    0.186325792125
 C   -0.023491334776   -0.205794046355   -0.005433704099
 N   -0.647020645967    1.033171654275    0.004444504919
 C   -1.946946133124    0.725092265914   -0.004010348239
 H   -2.756999661911    1.451673067016    0.000037789624
 H   -3.092308707062   -1.092177416720   -0.026648738716
 K    0.104111034144    2.668837205134    0.024429621068
