16

 N   -2.281953937644   -0.835384297807   -0.021531674965
 C   -1.049828205377   -1.465674577815   -0.020576714657
 N   -0.779687269251   -2.786560052783   -0.024040903604
 C    0.548441899212   -3.004753945533   -0.008473474941
 H    0.862250182182   -4.051432678023   -0.005093904250
 N    1.560791342253   -2.096772988392    0.005497795334
 C    1.248574598346   -0.785951905143    0.000851391434
 N    2.256201553148    0.138546732162   -0.040970445497
 H    3.187653090535   -0.191983376590    0.181487488636
 H    2.023464047121    1.098517487201    0.183839799943
 C   -0.116926242528   -0.409258051276   -0.007919696281
 N   -0.740455553719    0.829707649354    0.001958512737
 C   -2.040381040876    0.521628260993   -0.006496340421
 H   -2.850434569663    1.248209062095   -0.002448202558
 H   -3.185743614814   -1.295641421641   -0.029134730898
 K    0.427971504231    3.374076284023    0.033046471192
