16

 N   -2.291297428420   -0.855730698300   -0.021780274183
 C   -1.059171696153   -1.486020978308   -0.020825313875
 N   -0.789030760027   -2.806906453276   -0.024289502822
 C    0.539098408436   -3.025100346026   -0.008722074159
 H    0.852906691406   -4.071779078516   -0.005342503468
 N    1.551447851477   -2.117119388885    0.005249196116
 C    1.239231107570   -0.806298305636    0.000602792216
 N    2.246858062372    0.118200331669   -0.041219044715
 H    3.178309599759   -0.212329777083    0.181238889418
 H    2.014120556345    1.078171086708    0.183591200725
 C   -0.126269733304   -0.429604451769   -0.008168295499
 N   -0.749799044495    0.809361248861    0.001709913519
 C   -2.049724531652    0.501281860500   -0.006744939639
 H   -2.859778060439    1.227862661602   -0.002696801776
 H   -3.195087105590   -1.315987822134   -0.029383330116
 K    0.460357551239    3.444600191912    0.033908156204
