16

 N   -2.300640919195   -0.876077098792   -0.022028873401
 C   -1.068515186928   -1.506367378800   -0.021073913093
 N   -0.798374250802   -2.827252853768   -0.024538102040
 C    0.529754917661   -3.045446746518   -0.008970673377
 H    0.843563200631   -4.092125479008   -0.005591102686
 N    1.542104360702   -2.137465789377    0.005000596898
 C    1.229887616795   -0.826644706128    0.000354192998
 N    2.237514571597    0.097853931177   -0.041467643933
 H    3.168966108984   -0.232676177575    0.180990290200
 H    2.004777065570    1.057824686216    0.183342601507
 C   -0.135613224079   -0.449950852261   -0.008416894717
 N   -0.759142535270    0.789014848369    0.001461314301
 C   -2.059068022427    0.480935460008   -0.006993538857
 H   -2.869121551214    1.207516261110   -0.002945400994
 H   -3.204430596365   -1.336334222626   -0.029631929334
 K    0.492743598248    3.515124099801    0.034769841217
