16

 N   -2.366045354622   -1.018501902236   -0.023769067928
 C   -1.133919622355   -1.648792182244   -0.022814107620
 N   -0.863778686229   -2.969677657212   -0.026278296567
 C    0.464350482234   -3.187871549962   -0.010710867904
 H    0.778158765204   -4.234550282452   -0.007331297213
 N    1.476699925275   -2.279890592821    0.003260402371
 C    1.164483181368   -0.969069509572   -0.001386001529
 N    2.172110136170   -0.044570872267   -0.043207838460
 H    3.103561673557   -0.375100981019    0.179250095673
 H    1.939372630143    0.915399882772    0.181602406980
 C   -0.201017659506   -0.592375655705   -0.010157089244
 N   -0.824546970697    0.646590044925   -0.000278880226
 C   -2.124472457854    0.338510656564   -0.008733733384
 H   -2.934525986641    1.065091457666   -0.004685595521
 H   -3.269835031792   -1.478759026070   -0.031372123861
 K    0.719445927309    4.008791455024    0.040801636304
