16

 N   -2.375388845397   -1.038848302728   -0.024017667146
 C   -1.143263113130   -1.669138582736   -0.023062706838
 N   -0.873122177004   -2.990024057704   -0.026526895785
 C    0.455006991459   -3.208217950454   -0.010959467122
 H    0.768815274429   -4.254896682944   -0.007579896431
 N    1.467356434500   -2.300236993313    0.003011803153
 C    1.155139690593   -0.989415910064   -0.001634600747
 N    2.162766645395   -0.064917272759   -0.043456437678
 H    3.094218182782   -0.395447381511    0.179001496455
 H    1.930029139368    0.895053482280    0.181353807762
 C   -0.210361150281   -0.612722056197   -0.010405688462
 N   -0.833890461472    0.626243644433   -0.000527479444
 C   -2.133815948629    0.318164256072   -0.008982332602
 H   -2.943869477416    1.044745057174   -0.004934194739
 H   -3.279178522567   -1.499105426562   -0.031620723079
 K    0.751831974317    4.079315362912    0.041663321316
