16

 N   -2.384732336172   -1.059194703221   -0.024266266364
 C   -1.152606603905   -1.689484983229   -0.023311306056
 N   -0.882465667779   -3.010370458197   -0.026775495003
 C    0.445663500684   -3.228564350947   -0.011208066340
 H    0.759471783654   -4.275243083437   -0.007828495649
 N    1.458012943725   -2.320583393806    0.002763203935
 C    1.145796199818   -1.009762310557   -0.001883199965
 N    2.153423154620   -0.085263673252   -0.043705036896
 H    3.084874692007   -0.415793782004    0.178752897237
 H    1.920685648593    0.874707081787    0.181105208544
 C   -0.219704641056   -0.633068456690   -0.010654287680
 N   -0.843233952247    0.605897243940   -0.000776078662
 C   -2.143159439404    0.297817855579   -0.009230931820
 H   -2.953212968191    1.024398656681   -0.005182793957
 H   -3.288522013342   -1.519451827055   -0.031869322297
 K    0.784218021326    4.149839270801    0.042525006328
