16

 N   -2.440793280824   -1.181273106173   -0.025757861673
 C   -1.208667548557   -1.811563386181   -0.024802901365
 N   -0.938526612431   -3.132448861149   -0.028267090312
 C    0.389602556032   -3.350642753899   -0.012699661649
 H    0.703410839002   -4.397321486389   -0.009320090958
 N    1.401951999073   -2.442661796758    0.001271608626
 C    1.089735255166   -1.131840713509   -0.003374795274
 N    2.097362209968   -0.207342076204   -0.045196632205
 H    3.028813747355   -0.537872184956    0.177261301928
 H    1.864624703941    0.752628678835    0.179613613235
 C   -0.275765585708   -0.755146859642   -0.012145882989
 N   -0.899294896899    0.483818840988   -0.002267673971
 C   -2.199220384056    0.175739452627   -0.010722527129
 H   -3.009273912843    0.902320253729   -0.006674389266
 H   -3.344582957994   -1.641530230007   -0.033360917606
 K    0.978534303378    4.572982718135    0.047695116403
