16

 N   -2.487510734700   -1.283005108634   -0.027000857763
 C   -1.255385002433   -1.913295388642   -0.026045897455
 N   -0.985244066307   -3.234180863610   -0.029510086402
 C    0.342885102156   -3.452374756360   -0.013942657739
 H    0.656693385126   -4.499053488850   -0.010563087048
 N    1.355234545197   -2.544393799219    0.000028612536
 C    1.043017801290   -1.233572715970   -0.004617791364
 N    2.050644756092   -0.309074078665   -0.046439628295
 H    2.982096293479   -0.639604187417    0.176018305838
 H    1.817907250065    0.650896676374    0.178370617145
 C   -0.322483039584   -0.856878862103   -0.013388879079
 N   -0.946012350775    0.382086838527   -0.003510670061
 C   -2.245937837932    0.074007450166   -0.011965523219
 H   -3.055991366719    0.800588251268   -0.007917385356
 H   -3.391300411870   -1.743262232468   -0.034603913696
 K    1.140464538421    4.925602257580    0.052003541465
