16

 N   -2.496854225475   -1.303351509126   -0.027249456981
 C   -1.264728493208   -1.933641789134   -0.026294496673
 N   -0.994587557082   -3.254527264102   -0.029758685620
 C    0.333541611381   -3.472721156852   -0.014191256957
 H    0.647349894351   -4.519399889342   -0.010811686266
 N    1.345891054422   -2.564740199711   -0.000219986682
 C    1.033674310515   -1.253919116462   -0.004866390582
 N    2.041301265317   -0.329420479157   -0.046688227513
 H    2.972752802704   -0.659950587909    0.175769706620
 H    1.808563759290    0.630550275882    0.178122017927
 C   -0.331826530359   -0.877225262595   -0.013637478297
 N   -0.955355841550    0.361740438035   -0.003759269279
 C   -2.255281328707    0.053661049674   -0.012214122437
 H   -3.065334857494    0.780241850776   -0.008165984574
 H   -3.400643902645   -1.763608632960   -0.034852512914
 K    1.172850585430    4.996126165469    0.052865226477
