16

 N   -2.515541207026   -1.344044310110   -0.027746655418
 C   -1.283415474759   -1.974334590118   -0.026791695110
 N   -1.013274538633   -3.295220065086   -0.030255884057
 C    0.314854629830   -3.513413957836   -0.014688455394
 H    0.628662912800   -4.560092690326   -0.011308884703
 N    1.327204072871   -2.605433000695   -0.000717185119
 C    1.014987328964   -1.294611917446   -0.005363589019
 N    2.022614283766   -0.370113280141   -0.047185425950
 H    2.954065821153   -0.700643388893    0.175272508183
 H    1.789876777739    0.589857474898    0.177624819490
 C   -0.350513511910   -0.917918063579   -0.014134676734
 N   -0.974042823101    0.321047637051   -0.004256467716
 C   -2.273968310258    0.012968248690   -0.012711320874
 H   -3.084021839045    0.739549049792   -0.008663183011
 H   -3.419330884196   -1.804301433944   -0.035349711351
 K    1.237622679447    5.137173981247    0.054588596502
