16

 N   -2.524884697801   -1.364390710602   -0.027995254636
 C   -1.292758965534   -1.994680990610   -0.027040294328
 N   -1.022618029408   -3.315566465578   -0.030504483275
 C    0.305511139055   -3.533760358328   -0.014937054612
 H    0.619319422025   -4.580439090818   -0.011557483921
 N    1.317860582096   -2.625779401187   -0.000965784337
 C    1.005643838189   -1.314958317938   -0.005612188237
 N    2.013270792991   -0.390459680633   -0.047434025168
 H    2.944722330378   -0.720989789385    0.175023908965
 H    1.780533286964    0.569511074406    0.177376220272
 C   -0.359857002685   -0.938264464071   -0.014383275952
 N   -0.983386313876    0.300701236559   -0.004505066934
 C   -2.283311801033   -0.007378151802   -0.012959920092
 H   -3.093365329820    0.719202649300   -0.008911782229
 H   -3.428674374971   -1.824647834436   -0.035598310569
 K    1.270008726456    5.207697889136    0.055450281514
