16

 N   -2.552915170127   -1.425429912079   -0.028741052290
 C   -1.320789437860   -2.055720192087   -0.027786091982
 N   -1.050648501734   -3.376605667055   -0.031250280929
 C    0.277480666729   -3.594799559805   -0.015682852266
 H    0.591288949699   -4.641478292295   -0.012303281575
 N    1.289830109770   -2.686818602664   -0.001711581991
 C    0.977613365863   -1.375997519415   -0.006357985891
 N    1.985240320665   -0.451498882110   -0.048179822822
 H    2.916691858052   -0.782028990862    0.174278111311
 H    1.752502814638    0.508471872929    0.176630422618
 C   -0.387887475011   -0.999303665548   -0.015129073606
 N   -1.011416786202    0.239662035082   -0.005250864588
 C   -2.311342273359   -0.068417353279   -0.013705717746
 H   -3.121395802146    0.658163447823   -0.009657579883
 H   -3.456704847297   -1.885687035913   -0.036344108223
 K    1.367166867482    5.419269612802    0.058035336552
