16

 N   -2.580945642452   -1.486469113555   -0.029486849945
 C   -1.348819910185   -2.116759393563   -0.028531889637
 N   -1.078678974059   -3.437644868531   -0.031996078584
 C    0.249450194404   -3.655838761281   -0.016428649921
 H    0.563258477374   -4.702517493771   -0.013049079230
 N    1.261799637445   -2.747857804140   -0.002457379646
 C    0.949582893538   -1.437036720891   -0.007103783546
 N    1.957209848340   -0.512538083586   -0.048925620477
 H    2.888661385727   -0.843068192338    0.173532313656
 H    1.724472342313    0.447432671453    0.175884624963
 C   -0.415917947336   -1.060342867024   -0.015874871261
 N   -1.039447258527    0.178622833606   -0.005996662243
 C   -2.339372745684   -0.129456554755   -0.014451515401
 H   -3.149426274471    0.597124246347   -0.010403377538
 H   -3.484735319622   -1.946726237389   -0.037089905878
 K    1.464325008508    5.630841336469    0.060620391589
