16

 N   -2.637006587104   -1.608547516507   -0.030978445253
 C   -1.404880854837   -2.238837796515   -0.030023484945
 N   -1.134739918711   -3.559723271483   -0.033487673892
 C    0.193389249752   -3.777917164233   -0.017920245229
 H    0.507197532722   -4.824595896723   -0.014540674538
 N    1.205738692793   -2.869936207092   -0.003948974954
 C    0.893521948886   -1.559115123843   -0.008595378854
 N    1.901148903688   -0.634616486538   -0.050417215785
 H    2.832600441075   -0.965146595290    0.172040718348
 H    1.668411397661    0.325354268501    0.174393029655
 C   -0.471978891988   -1.182421269976   -0.017366466569
 N   -1.095508203179    0.056544430654   -0.007488257551
 C   -2.395433690336   -0.251534957707   -0.015943110709
 H   -3.205487219123    0.475045843395   -0.011894972846
 H   -3.540796264274   -2.068804640341   -0.038581501186
 K    1.658641290560    6.053984783803    0.065790501663
