16

 N   -2.646350077879   -1.628893917000   -0.031227044471
 C   -1.414224345612   -2.259184197008   -0.030272084163
 N   -1.144083409486   -3.580069671976   -0.033736273110
 C    0.184045758977   -3.798263564726   -0.018168844447
 H    0.497854041947   -4.844942297216   -0.014789273756
 N    1.196395202018   -2.890282607585   -0.004197574172
 C    0.884178458111   -1.579461524336   -0.008843978072
 N    1.891805412913   -0.654962887031   -0.050665815003
 H    2.823256950300   -0.985492995783    0.171792119130
 H    1.659067906886    0.305007868008    0.174144430437
 C   -0.481322382763   -1.202767670469   -0.017615065787
 N   -1.104851693954    0.036198030161   -0.007736856769
 C   -2.404777181111   -0.271881358200   -0.016191709927
 H   -3.214830709898    0.454699442902   -0.012143572064
 H   -3.550139755049   -2.089151040834   -0.038830100404
 K    1.691027337569    6.124508691692    0.066652186676
