16

 N   -2.683724040980   -1.710279518968   -0.032221441344
 C   -1.451598308713   -2.340569798976   -0.031266481036
 N   -1.181457372587   -3.661455273944   -0.034730669983
 C    0.146671795876   -3.879649166694   -0.019163241320
 H    0.460480078846   -4.926327899184   -0.015783670629
 N    1.159021238917   -2.971668209553   -0.005191971045
 C    0.846804495010   -1.660847126304   -0.009838374945
 N    1.854431449812   -0.736348488999   -0.051660211876
 H    2.785882987199   -1.066878597751    0.170797722257
 H    1.621693943785    0.223622266040    0.173150033564
 C   -0.518696345864   -1.284153272437   -0.018609462660
 N   -1.142225657055   -0.045187571807   -0.008731253642
 C   -2.442151144212   -0.353266960168   -0.017186106800
 H   -3.252204672999    0.373313840934   -0.013137968937
 H   -3.587513718150   -2.170536642802   -0.039824497277
 K    1.820571525604    6.406604323248    0.070098926725
