16

 N   -2.693067531755   -1.730625919460   -0.032470040562
 C   -1.460941799488   -2.360916199468   -0.031515080254
 N   -1.190800863362   -3.681801674436   -0.034979269201
 C    0.137328305101   -3.899995567186   -0.019411840538
 H    0.451136588071   -4.946674299676   -0.016032269847
 N    1.149677748142   -2.992014610045   -0.005440570263
 C    0.837461004235   -1.681193526796   -0.010086974163
 N    1.845087959037   -0.756694889491   -0.051908811094
 H    2.776539496424   -1.087224998243    0.170549123039
 H    1.612350453010    0.203275865548    0.172901434346
 C   -0.528039836639   -1.304499672929   -0.018858061878
 N   -1.151569147830   -0.065533972299   -0.008979852860
 C   -2.451494634987   -0.373613360660   -0.017434706018
 H   -3.261548163774    0.352967440442   -0.013386568155
 H   -3.596857208925   -2.190883043294   -0.040073096495
 K    1.852957572612    6.477128231137    0.070960611738
