16

 N   -2.739784985632   -1.832357921921   -0.033713036653
 C   -1.507659253365   -2.462648201929   -0.032758076345
 N   -1.237518317239   -3.783533676897   -0.036222265292
 C    0.090610851224   -4.001727569647   -0.020654836629
 H    0.404419134194   -5.048406302137   -0.017275265938
 N    1.102960294265   -3.093746612506   -0.006683566354
 C    0.790743550358   -1.782925529257   -0.011329970254
 N    1.798370505160   -0.858426891952   -0.053151807185
 H    2.729822042547   -1.188957000704    0.169306126948
 H    1.565632999133    0.101543863087    0.171658438255
 C   -0.574757290516   -1.406231675390   -0.020101057969
 N   -1.198286601707   -0.167265974760   -0.010222848951
 C   -2.498212088864   -0.475345363121   -0.018677702109
 H   -3.308265617651    0.251235437981   -0.014629564246
 H   -3.643574662802   -2.292615045755   -0.041316092586
 K    2.014887807656    6.829747770581    0.075269036800
