16

 N   -2.777158948732   -1.913743523889   -0.034707433525
 C   -1.545033216465   -2.544033803897   -0.033752473217
 N   -1.274892280339   -3.864919278865   -0.037216662164
 C    0.053236888124   -4.083113171615   -0.021649233501
 H    0.367045171094   -5.129791904105   -0.018269662810
 N    1.065586331165   -3.175132214474   -0.007677963226
 C    0.753369587258   -1.864311131225   -0.012324367126
 N    1.760996542060   -0.939812493920   -0.054146204057
 H    2.692448079447   -1.270342602672    0.168311730076
 H    1.528259036033    0.020158261119    0.170664041383
 C   -0.612131253616   -1.487617277358   -0.021095454841
 N   -1.235660564807   -0.248651576728   -0.011217245823
 C   -2.535586051964   -0.556730965089   -0.019672098981
 H   -3.345639580751    0.169849836013   -0.015623961118
 H   -3.680948625902   -2.374000647723   -0.042310489458
 K    2.144431995690    7.111843402137    0.078715776849
