16

 N   -2.870593856485   -2.117207528810   -0.037193425706
 C   -1.638468124218   -2.747497808818   -0.036238465398
 N   -1.368327188092   -4.068383283786   -0.039702654345
 C   -0.040198019629   -4.286577176536   -0.024135225682
 H    0.273610263341   -5.333255909026   -0.020755654991
 N    0.972151423412   -3.378596219395   -0.010163955407
 C    0.659934679505   -2.067775136146   -0.014810359307
 N    1.667561634307   -1.143276498841   -0.056632196238
 H    2.599013171694   -1.473806607593    0.165825737895
 H    1.434824128280   -0.183305743802    0.168178049202
 C   -0.705566161369   -1.691081282279   -0.023581447022
 N   -1.329095472560   -0.452115581649   -0.013703238004
 C   -2.629020959717   -0.760194970010   -0.022158091162
 H   -3.439074488504   -0.033614168908   -0.018109953299
 H   -3.774383533655   -2.577464652644   -0.044796481639
 K    2.468292465777    7.817082481027    0.087332626973
