16

 N   -2.879937347260   -2.137553929302   -0.037442024925
 C   -1.647811614993   -2.767844209310   -0.036487064617
 N   -1.377670678867   -4.088729684278   -0.039951253564
 C   -0.049541510404   -4.306923577028   -0.024383824901
 H    0.264266772566   -5.353602309518   -0.021004254210
 N    0.962807932637   -3.398942619887   -0.010412554626
 C    0.650591188730   -2.088121536638   -0.015058958526
 N    1.658218143532   -1.163622899333   -0.056880795457
 H    2.589669680919   -1.494153008085    0.165577138676
 H    1.425480637505   -0.203652144294    0.167929449983
 C   -0.714909652144   -1.711427682771   -0.023830046241
 N   -1.338438963335   -0.472461982141   -0.013951837223
 C   -2.638364450492   -0.780541370502   -0.022406690381
 H   -3.448417979279   -0.053960569400   -0.018358552518
 H   -3.783727024430   -2.597811053136   -0.045045080858
 K    2.500678512786    7.887606388915    0.088194311986
