16

 N   -2.907967819586   -2.198593130779   -0.038187822579
 C   -1.675842087319   -2.828883410787   -0.037232862271
 N   -1.405701151193   -4.149768885755   -0.040697051218
 C   -0.077571982730   -4.367962778505   -0.025129622555
 H    0.236236300240   -5.414641510995   -0.021750051864
 N    0.934777460311   -3.459981821364   -0.011158352280
 C    0.622560716404   -2.149160738115   -0.015804756180
 N    1.630187671206   -1.224662100810   -0.057626593111
 H    2.561639208593   -1.555192209562    0.164831341022
 H    1.397450165179   -0.264691345771    0.167183652329
 C   -0.742940124470   -1.772466884248   -0.024575843895
 N   -1.366469435661   -0.533501183618   -0.014697634877
 C   -2.666394922818   -0.841580571979   -0.023152488035
 H   -3.476448451605   -0.114999770877   -0.019104350172
 H   -3.811757496756   -2.658850254613   -0.045790878512
 K    2.597836653812    8.099178112582    0.090779367023
