16

 N   -2.926654801136   -2.239285931763   -0.038685021015
 C   -1.694529068869   -2.869576211771   -0.037730060707
 N   -1.424388132743   -4.190461686739   -0.041194249654
 C   -0.096258964280   -4.408655579489   -0.025626820991
 H    0.217549318690   -5.455334311979   -0.022247250300
 N    0.916090478761   -3.500674622348   -0.011655550716
 C    0.603873734854   -2.189853539099   -0.016301954616
 N    1.611500689656   -1.265354901794   -0.058123791547
 H    2.542952227043   -1.595885010546    0.164334142586
 H    1.378763183629   -0.305384146755    0.166686453893
 C   -0.761627106020   -1.813159685232   -0.025073042331
 N   -1.385156417211   -0.574193984602   -0.015194833313
 C   -2.685081904368   -0.882273372963   -0.023649686471
 H   -3.495135433155   -0.155692571861   -0.019601548608
 H   -3.830444478306   -2.699543055597   -0.046288076948
 K    2.662608747829    8.240225928360    0.092502737048
