16

 N   -2.935998291912   -2.259632332255   -0.038933620233
 C   -1.703872559645   -2.889922612263   -0.037978659925
 N   -1.433731623519   -4.210808087231   -0.041442848872
 C   -0.105602455056   -4.429001979981   -0.025875420209
 H    0.208205827914   -5.475680712471   -0.022495849518
 N    0.906746987985   -3.521021022840   -0.011904149934
 C    0.594530244078   -2.210199939591   -0.016550553834
 N    1.602157198880   -1.285701302286   -0.058372390765
 H    2.533608736267   -1.616231411038    0.164085543368
 H    1.369419692853   -0.325730547247    0.166437854675
 C   -0.770970596796   -1.833506085724   -0.025321641549
 N   -1.394499907987   -0.594540385094   -0.015443432531
 C   -2.694425395144   -0.902619773455   -0.023898285689
 H   -3.504478923931   -0.176038972353   -0.019850147826
 H   -3.839787969082   -2.719889456089   -0.046536676166
 K    2.694994794838    8.310749836249    0.093364422060
