14

 P    0.126076000446   -0.421252504048   -1.093028018850
 O   -0.460923999554    0.628747495952   -0.138028018850
 O   -0.139923999554   -0.373252504048   -2.605028018850
 O    1.789076000446   -0.595252504048   -0.806028018850
 O   -0.188923999554   -1.979252504048   -0.501028018850
 C    2.526076000446    0.569747495952   -1.183028018850
 H    2.195076000446    1.452747495952   -0.607028018850
 H    2.411076000446    0.780747495952   -2.261028018850
 H    3.586076000446    0.367747495952   -0.963028018850
 C   -1.579923999554   -2.302252504048   -0.551028018850
 H   -1.957923999554   -2.275252504048   -1.589028018850
 H   -2.172923999554   -1.603252504048    0.064971981150
 H   -1.689923999554   -3.322252504048   -0.151028018850
CS   -0.253057090253    0.568567409179    0.940475437414
