14

 P    0.106599796270   -0.415613897782   -1.194078992232
 O   -0.480400203730    0.634386102218   -0.239078992232
 O   -0.159400203730   -0.367613897782   -2.706078992232
 O    1.769599796270   -0.589613897782   -0.907078992232
 O   -0.208400203730   -1.973613897782   -0.602078992232
 C    2.506599796270    0.575386102218   -1.284078992232
 H    2.175599796270    1.458386102218   -0.708078992232
 H    2.391599796270    0.786386102218   -2.362078992232
 H    3.566599796270    0.373386102218   -1.064078992232
 C   -1.599400203730   -2.296613897782   -0.652078992232
 H   -1.977400203730   -2.269613897782   -1.690078992232
 H   -2.192400203730   -1.597613897782   -0.036078992232
 H   -1.709400203730   -3.316613897782   -0.252078992232
CS   -0.234739310920    0.563264181487    1.035516001535
