14

 P    0.096861694182   -0.412794594649   -1.244604478922
 O   -0.490138305818    0.637205405351   -0.289604478922
 O   -0.169138305818   -0.364794594649   -2.756604478922
 O    1.759861694182   -0.586794594649   -0.957604478922
 O   -0.218138305818   -1.970794594649   -0.652604478922
 C    2.496861694182    0.578205405351   -1.334604478922
 H    2.165861694182    1.461205405351   -0.758604478922
 H    2.381861694182    0.789205405351   -2.412604478922
 H    3.556861694182    0.376205405351   -1.114604478922
 C   -1.609138305818   -2.293794594649   -0.702604478922
 H   -1.987138305818   -2.266794594649   -1.740604478922
 H   -2.202138305818   -1.594794594649   -0.086604478922
 H   -1.719138305818   -3.313794594649   -0.302604478922
CS   -0.225580421253    0.560612567641    1.083036283596
