14

 P    0.087123592094   -0.409975291516   -1.295129965613
 O   -0.499876407906    0.640024708484   -0.340129965613
 O   -0.178876407906   -0.361975291516   -2.807129965613
 O    1.750123592094   -0.583975291516   -1.008129965613
 O   -0.227876407906   -1.967975291516   -0.703129965613
 C    2.487123592094    0.581024708484   -1.385129965613
 H    2.156123592094    1.464024708484   -0.809129965613
 H    2.372123592094    0.792024708484   -2.463129965613
 H    3.547123592094    0.379024708484   -1.165129965613
 C   -1.618876407906   -2.290975291516   -0.753129965613
 H   -1.996876407906   -2.263975291516   -1.791129965613
 H   -2.211876407906   -1.591975291516   -0.137129965613
 H   -1.728876407906   -3.310975291516   -0.353129965613
CS   -0.216421531587    0.557960953794    1.130556565657
