14

 P    0.077385490006   -0.407155988383   -1.345655452303
 O   -0.509614509994    0.642844011617   -0.390655452303
 O   -0.188614509994   -0.359155988383   -2.857655452303
 O    1.740385490006   -0.581155988383   -1.058655452303
 O   -0.237614509994   -1.965155988383   -0.753655452303
 C    2.477385490006    0.583844011617   -1.435655452303
 H    2.146385490006    1.466844011617   -0.859655452303
 H    2.362385490006    0.794844011617   -2.513655452303
 H    3.537385490006    0.381844011617   -1.215655452303
 C   -1.628614509994   -2.288155988383   -0.803655452303
 H   -2.006614509994   -2.261155988383   -1.841655452303
 H   -2.221614509994   -1.589155988383   -0.187655452303
 H   -1.738614509994   -3.308155988383   -0.403655452303
CS   -0.207262641920    0.555309339948    1.178076847718
