14

 P    0.067647387918   -0.404336685249   -1.396180938994
 O   -0.519352612082    0.645663314751   -0.441180938994
 O   -0.198352612082   -0.356336685249   -2.908180938994
 O    1.730647387918   -0.578336685249   -1.109180938994
 O   -0.247352612082   -1.962336685249   -0.804180938994
 C    2.467647387918    0.586663314751   -1.486180938994
 H    2.136647387918    1.469663314751   -0.910180938994
 H    2.352647387918    0.797663314751   -2.564180938994
 H    3.527647387918    0.384663314751   -1.266180938994
 C   -1.638352612082   -2.285336685249   -0.854180938994
 H   -2.016352612082   -2.258336685249   -1.892180938994
 H   -2.231352612082   -1.586336685249   -0.238180938994
 H   -1.748352612082   -3.305336685249   -0.454180938994
CS   -0.198103752253    0.552657726102    1.225597129778
