14

 P    0.009218775391   -0.387420866451   -1.699333859137
 O   -0.577781224609    0.662579133549   -0.744333859137
 O   -0.256781224609   -0.339420866451   -3.211333859137
 O    1.672218775391   -0.561420866451   -1.412333859137
 O   -0.305781224609   -1.945420866451   -1.107333859137
 C    2.409218775391    0.603579133549   -1.789333859137
 H    2.078218775391    1.486579133549   -1.213333859137
 H    2.294218775391    0.814579133549   -2.867333859137
 H    3.469218775391    0.401579133549   -1.569333859137
 C   -1.696781224609   -2.268420866451   -1.157333859137
 H   -2.074781224609   -2.241420866451   -2.195333859137
 H   -2.289781224609   -1.569420866451   -0.541333859137
 H   -1.806781224609   -3.288420866451   -0.757333859137
CS   -0.143150414253    0.536748043024    1.510718822143
