14

 P   -0.010257428785   -0.381782260185   -1.800384832518
 O   -0.597257428785    0.668217739815   -0.845384832518
 O   -0.276257428785   -0.333782260185   -3.312384832518
 O    1.652742571215   -0.555782260185   -1.513384832518
 O   -0.325257428785   -1.939782260185   -1.208384832518
 C    2.389742571215    0.609217739815   -1.890384832518
 H    2.058742571215    1.492217739815   -1.314384832518
 H    2.274742571215    0.820217739815   -2.968384832518
 H    3.449742571215    0.407217739815   -1.670384832518
 C   -1.716257428785   -2.262782260185   -1.258384832518
 H   -2.094257428785   -2.235782260185   -2.296384832518
 H   -2.309257428785   -1.563782260185   -0.642384832518
 H   -1.826257428785   -3.282782260185   -0.858384832518
CS   -0.124832634920    0.531444815332    1.605759386264
