14

 P   -0.029733632961   -0.376143653919   -1.901435805899
 O   -0.616733632961    0.673856346081   -0.946435805899
 O   -0.295733632961   -0.328143653919   -3.413435805899
 O    1.633266367039   -0.550143653919   -1.614435805899
 O   -0.344733632961   -1.934143653919   -1.309435805899
 C    2.370266367039    0.614856346081   -1.991435805899
 H    2.039266367039    1.497856346081   -1.415435805899
 H    2.255266367039    0.825856346081   -3.069435805899
 H    3.430266367039    0.412856346081   -1.771435805899
 C   -1.735733632961   -2.257143653919   -1.359435805899
 H   -2.113733632961   -2.230143653919   -2.397435805899
 H   -2.328733632961   -1.558143653919   -0.743435805899
 H   -1.845733632961   -3.277143653919   -0.959435805899
CS   -0.106514855586    0.526141587639    1.700799950386
