14

 P   -0.039471735049   -0.373324350786   -1.951961292589
 O   -0.626471735049    0.676675649214   -0.996961292589
 O   -0.305471735049   -0.325324350786   -3.463961292589
 O    1.623528264951   -0.547324350786   -1.664961292589
 O   -0.354471735049   -1.931324350786   -1.359961292589
 C    2.360528264951    0.617675649214   -2.041961292589
 H    2.029528264951    1.500675649214   -1.465961292589
 H    2.245528264951    0.828675649214   -3.119961292589
 H    3.420528264951    0.415675649214   -1.821961292589
 C   -1.745471735049   -2.254324350786   -1.409961292589
 H   -2.123471735049   -2.227324350786   -2.447961292589
 H   -2.338471735049   -1.555324350786   -0.793961292589
 H   -1.855471735049   -3.274324350786   -1.009961292589
CS   -0.097355965919    0.523489973793    1.748320232447
