14

 P   -0.049209837137   -0.370505047653   -2.002486779280
 O   -0.636209837137    0.679494952347   -1.047486779280
 O   -0.315209837137   -0.322505047653   -3.514486779280
 O    1.613790162863   -0.544505047653   -1.715486779280
 O   -0.364209837137   -1.928505047653   -1.410486779280
 C    2.350790162863    0.620494952347   -2.092486779280
 H    2.019790162863    1.503494952347   -1.516486779280
 H    2.235790162863    0.831494952347   -3.170486779280
 H    3.410790162863    0.418494952347   -1.872486779280
 C   -1.755209837137   -2.251505047653   -1.460486779280
 H   -2.133209837137   -2.224505047653   -2.498486779280
 H   -2.348209837137   -1.552505047653   -0.844486779280
 H   -1.865209837137   -3.271505047653   -1.060486779280
CS   -0.088197076253    0.520838359946    1.795840514508
