14

 P   -0.068686041313   -0.364866441387   -2.103537752661
 O   -0.655686041313    0.685133558613   -1.148537752661
 O   -0.334686041313   -0.316866441387   -3.615537752661
 O    1.594313958687   -0.538866441387   -1.816537752661
 O   -0.383686041313   -1.922866441387   -1.511537752661
 C    2.331313958687    0.626133558613   -2.193537752661
 H    2.000313958687    1.509133558613   -1.617537752661
 H    2.216313958687    0.837133558613   -3.271537752661
 H    3.391313958687    0.424133558613   -1.973537752661
 C   -1.774686041313   -2.245866441387   -1.561537752661
 H   -2.152686041313   -2.218866441387   -2.599537752661
 H   -2.367686041313   -1.546866441387   -0.945537752661
 H   -1.884686041313   -3.265866441387   -1.161537752661
CS   -0.069879296919    0.515535132254    1.890881078629
