14

 P   -0.097900347576   -0.356408531987   -2.255114212732
 O   -0.684900347576    0.693591468013   -1.300114212732
 O   -0.363900347576   -0.308408531987   -3.767114212732
 O    1.565099652424   -0.530408531987   -1.968114212732
 O   -0.412900347576   -1.914408531987   -1.663114212732
 C    2.302099652424    0.634591468013   -2.345114212732
 H    1.971099652424    1.517591468013   -1.769114212732
 H    2.187099652424    0.845591468013   -3.423114212732
 H    3.362099652424    0.432591468013   -2.125114212732
 C   -1.803900347576   -2.237408531987   -1.713114212732
 H   -2.181900347576   -2.210408531987   -2.751114212732
 H   -2.396900347576   -1.538408531987   -1.097114212732
 H   -1.913900347576   -3.257408531987   -1.313114212732
CS   -0.042402627919    0.507580290715    2.033441924811
