14

 P   -0.107638449664   -0.353589228854   -2.305639699423
 O   -0.694638449664    0.696410771146   -1.350639699423
 O   -0.373638449664   -0.305589228854   -3.817639699423
 O    1.555361550336   -0.527589228854   -2.018639699423
 O   -0.422638449664   -1.911589228854   -1.713639699423
 C    2.292361550336    0.637410771146   -2.395639699423
 H    1.961361550336    1.520410771146   -1.819639699423
 H    2.177361550336    0.848410771146   -3.473639699423
 H    3.352361550336    0.435410771146   -2.175639699423
 C   -1.813638449664   -2.234589228854   -1.763639699423
 H   -2.191638449664   -2.207589228854   -2.801639699423
 H   -2.406638449664   -1.535589228854   -1.147639699423
 H   -1.923638449664   -3.254589228854   -1.363639699423
CS   -0.033243738253    0.504928676869    2.080962206872
