14

 P   -0.156328960104   -0.339492713189   -2.558267132875
 O   -0.743328960104    0.710507286811   -1.603267132875
 O   -0.422328960104   -0.291492713189   -4.070267132875
 O    1.506671039896   -0.513492713189   -2.271267132875
 O   -0.471328960104   -1.897492713189   -1.966267132875
 C    2.243671039896    0.651507286811   -2.648267132875
 H    1.912671039896    1.534507286811   -2.072267132875
 H    2.128671039896    0.862507286811   -3.726267132875
 H    3.303671039896    0.449507286811   -2.428267132875
 C   -1.862328960104   -2.220492713189   -2.016267132875
 H   -2.240328960104   -2.193492713189   -3.054267132875
 H   -2.455328960104   -1.521492713189   -1.400267132875
 H   -1.972328960104   -3.240492713189   -1.616267132875
CS    0.012550710081    0.491670607637    2.318563617176
