14

 P   -0.175805164280   -0.333854106923   -2.659318106257
 O   -0.762805164280    0.716145893077   -1.704318106257
 O   -0.441805164280   -0.285854106923   -4.171318106257
 O    1.487194835720   -0.507854106923   -2.372318106257
 O   -0.490805164280   -1.891854106923   -2.067318106257
 C    2.224194835720    0.657145893077   -2.749318106257
 H    1.893194835720    1.540145893077   -2.173318106257
 H    2.109194835720    0.868145893077   -3.827318106257
 H    3.284194835720    0.455145893077   -2.529318106257
 C   -1.881805164280   -2.214854106923   -2.117318106257
 H   -2.259805164280   -2.187854106923   -3.155318106257
 H   -2.474805164280   -1.515854106923   -1.501318106257
 H   -1.991805164280   -3.234854106923   -1.717318106257
CS    0.030868489414    0.486367379945    2.413604181298
