14

 P   -0.243971878895   -0.314118984991   -3.012996513090
 O   -0.830971878895    0.735881015009   -2.057996513090
 O   -0.509971878895   -0.266118984991   -4.524996513090
 O    1.419028121105   -0.488118984991   -2.725996513090
 O   -0.558971878895   -1.872118984991   -2.420996513090
 C    2.156028121105    0.676881015009   -3.102996513090
 H    1.825028121105    1.559881015009   -2.526996513090
 H    2.041028121105    0.887881015009   -4.180996513090
 H    3.216028121105    0.474881015009   -2.882996513090
 C   -1.949971878895   -2.195118984991   -2.470996513090
 H   -2.327971878895   -2.168118984991   -3.508996513090
 H   -2.542971878895   -1.496118984991   -1.854996513090
 H   -2.059971878895   -3.215118984991   -2.070996513090
CS    0.094980717081    0.467806083021    2.746246155723
