14

 P   -0.263448083071   -0.308480378725   -3.114047486471
 O   -0.850448083071    0.741519621275   -2.159047486471
 O   -0.529448083071   -0.260480378725   -4.626047486471
 O    1.399551916929   -0.482480378725   -2.827047486471
 O   -0.578448083071   -1.866480378725   -2.522047486471
 C    2.136551916929    0.682519621275   -3.204047486471
 H    1.805551916929    1.565519621275   -2.628047486471
 H    2.021551916929    0.893519621275   -4.282047486471
 H    3.196551916929    0.480519621275   -2.984047486471
 C   -1.969448083071   -2.189480378725   -2.572047486471
 H   -2.347448083071   -2.162480378725   -3.610047486471
 H   -2.562448083071   -1.490480378725   -1.956047486471
 H   -2.079448083071   -3.209480378725   -2.172047486471
CS    0.113298496415    0.462502855328    2.841286719844
