14

 P   -0.273186185159   -0.305661075592   -3.164572973162
 O   -0.860186185159    0.744338924408   -2.209572973162
 O   -0.539186185159   -0.257661075592   -4.676572973162
 O    1.389813814841   -0.479661075592   -2.877572973162
 O   -0.588186185159   -1.863661075592   -2.572572973162
 C    2.126813814841    0.685338924408   -3.254572973162
 H    1.795813814841    1.568338924408   -2.678572973162
 H    2.011813814841    0.896338924408   -4.332572973162
 H    3.186813814841    0.483338924408   -3.034572973162
 C   -1.979186185159   -2.186661075592   -2.622572973162
 H   -2.357186185159   -2.159661075592   -3.660572973162
 H   -2.572186185159   -1.487661075592   -2.006572973162
 H   -2.089186185159   -3.206661075592   -2.222572973162
CS    0.122457386081    0.459851241482    2.888807001905
