14

 P   -0.292662389335   -0.300022469326   -3.265623946543
 O   -0.879662389335    0.749977530674   -2.310623946543
 O   -0.558662389335   -0.252022469326   -4.777623946543
 O    1.370337610665   -0.474022469326   -2.978623946543
 O   -0.607662389335   -1.858022469326   -2.673623946543
 C    2.107337610665    0.690977530674   -3.355623946543
 H    1.776337610665    1.573977530674   -2.779623946543
 H    1.992337610665    0.901977530674   -4.433623946543
 H    3.167337610665    0.488977530674   -3.135623946543
 C   -1.998662389335   -2.181022469326   -2.723623946543
 H   -2.376662389335   -2.154022469326   -3.761623946543
 H   -2.591662389335   -1.482022469326   -2.107623946543
 H   -2.108662389335   -3.201022469326   -2.323623946543
CS    0.140775165415    0.454548013790    2.983847566027
