14

 P   -0.331614797687   -0.288745256794   -3.467725893305
 O   -0.918614797687    0.761254743206   -2.512725893305
 O   -0.597614797687   -0.240745256794   -4.979725893305
 O    1.331385202313   -0.462745256794   -3.180725893305
 O   -0.646614797687   -1.846745256794   -2.875725893305
 C    2.068385202313    0.702254743206   -3.557725893305
 H    1.737385202313    1.585254743206   -2.981725893305
 H    1.953385202313    0.913254743206   -4.635725893305
 H    3.128385202313    0.500254743206   -3.337725893305
 C   -2.037614797687   -2.169745256794   -2.925725893305
 H   -2.415614797687   -2.142745256794   -3.963725893305
 H   -2.630614797687   -1.470745256794   -2.309725893305
 H   -2.147614797687   -3.189745256794   -2.525725893305
CS    0.177410724081    0.443941558405    3.173928694270
