14

 P   -0.351091001863   -0.283106650528   -3.568776866686
 O   -0.938091001863    0.766893349472   -2.613776866686
 O   -0.617091001863   -0.235106650528   -5.080776866686
 O    1.311908998137   -0.457106650528   -3.281776866686
 O   -0.666091001863   -1.841106650528   -2.976776866686
 C    2.048908998137    0.707893349472   -3.658776866686
 H    1.717908998137    1.590893349472   -3.082776866686
 H    1.933908998137    0.918893349472   -4.736776866686
 H    3.108908998137    0.505893349472   -3.438776866686
 C   -2.057091001863   -2.164106650528   -3.026776866686
 H   -2.435091001863   -2.137106650528   -4.064776866686
 H   -2.650091001863   -1.465106650528   -2.410776866686
 H   -2.167091001863   -3.184106650528   -2.626776866686
CS    0.195728503415    0.438638330712    3.268969258391
