14

 P   -0.360829103950   -0.280287347394   -3.619302353376
 O   -0.947829103950    0.769712652606   -2.664302353376
 O   -0.626829103950   -0.232287347394   -5.131302353376
 O    1.302170896050   -0.454287347394   -3.332302353376
 O   -0.675829103950   -1.838287347394   -3.027302353376
 C    2.039170896050    0.710712652606   -3.709302353376
 H    1.708170896050    1.593712652606   -3.133302353376
 H    1.924170896050    0.921712652606   -4.787302353376
 H    3.099170896050    0.508712652606   -3.489302353376
 C   -2.066829103950   -2.161287347394   -3.077302353376
 H   -2.444829103950   -2.134287347394   -4.115302353376
 H   -2.659829103950   -1.462287347394   -2.461302353376
 H   -2.176829103950   -3.181287347394   -2.677302353376
CS    0.204887393082    0.435986716866    3.316489540452
