14

 P   -0.390043410214   -0.271829437995   -3.770878813448
 O   -0.977043410214    0.778170562005   -2.815878813448
 O   -0.656043410214   -0.223829437995   -5.282878813448
 O    1.272956589786   -0.445829437995   -3.483878813448
 O   -0.705043410214   -1.829829437995   -3.178878813448
 C    2.009956589786    0.719170562005   -3.860878813448
 H    1.678956589786    1.602170562005   -3.284878813448
 H    1.894956589786    0.930170562005   -4.938878813448
 H    3.069956589786    0.517170562005   -3.640878813448
 C   -2.096043410214   -2.152829437995   -3.228878813448
 H   -2.474043410214   -2.125829437995   -4.266878813448
 H   -2.689043410214   -1.453829437995   -2.612878813448
 H   -2.206043410214   -3.172829437995   -2.828878813448
CS    0.232364062082    0.428031875327    3.459050386634
