14

 P   -0.438733920654   -0.257732922330   -4.023506246900
 O   -1.025733920654    0.792267077670   -3.068506246900
 O   -0.704733920654   -0.209732922330   -5.535506246900
 O    1.224266079346   -0.431732922330   -3.736506246900
 O   -0.753733920654   -1.815732922330   -3.431506246900
 C    1.961266079346    0.733267077670   -4.113506246900
 H    1.630266079346    1.616267077670   -3.537506246900
 H    1.846266079346    0.944267077670   -5.191506246900
 H    3.021266079346    0.531267077670   -3.893506246900
 C   -2.144733920654   -2.138732922330   -3.481506246900
 H   -2.522733920654   -2.111732922330   -4.519506246900
 H   -2.737733920654   -1.439732922330   -2.865506246900
 H   -2.254733920654   -3.158732922330   -3.081506246900
CS    0.278158510415    0.414773806096    3.696651796938
