14

 P   -0.458210124830   -0.252094316064   -4.124557220281
 O   -1.045210124830    0.797905683936   -3.169557220281
 O   -0.724210124830   -0.204094316064   -5.636557220281
 O    1.204789875170   -0.426094316064   -3.837557220281
 O   -0.773210124830   -1.810094316064   -3.532557220281
 C    1.941789875170    0.738905683936   -4.214557220281
 H    1.610789875170    1.621905683936   -3.638557220281
 H    1.826789875170    0.949905683936   -5.292557220281
 H    3.001789875170    0.536905683936   -3.994557220281
 C   -2.164210124830   -2.133094316064   -3.582557220281
 H   -2.542210124830   -2.106094316064   -4.620557220281
 H   -2.757210124830   -1.434094316064   -2.966557220281
 H   -2.274210124830   -3.153094316064   -3.182557220281
CS    0.296476289749    0.409470578403    3.791692361060
