14

 P   -0.477686329006   -0.246455709798   -4.225608193663
 O   -1.064686329006    0.803544290202   -3.270608193663
 O   -0.743686329006   -0.198455709798   -5.737608193663
 O    1.185313670994   -0.420455709798   -3.938608193663
 O   -0.792686329006   -1.804455709798   -3.633608193663
 C    1.922313670994    0.744544290202   -4.315608193663
 H    1.591313670994    1.627544290202   -3.739608193663
 H    1.807313670994    0.955544290202   -5.393608193663
 H    2.982313670994    0.542544290202   -4.095608193663
 C   -2.183686329006   -2.127455709798   -3.683608193663
 H   -2.561686329006   -2.100455709798   -4.721608193663
 H   -2.776686329006   -1.428455709798   -3.067608193663
 H   -2.293686329006   -3.147455709798   -3.283608193663
CS    0.314794069082    0.404167350710    3.886732925181
