14

 P   -0.506900635269   -0.237997800398   -4.377184653734
 O   -1.093900635269    0.812002199602   -3.422184653734
 O   -0.772900635269   -0.189997800398   -5.889184653734
 O    1.156099364731   -0.411997800398   -4.090184653734
 O   -0.821900635269   -1.795997800398   -3.785184653734
 C    1.893099364731    0.753002199602   -4.467184653734
 H    1.562099364731    1.636002199602   -3.891184653734
 H    1.778099364731    0.964002199602   -5.545184653734
 H    2.953099364731    0.551002199602   -4.247184653734
 C   -2.212900635269   -2.118997800398   -3.835184653734
 H   -2.590900635269   -2.091997800398   -4.873184653734
 H   -2.805900635269   -1.419997800398   -3.219184653734
 H   -2.322900635269   -3.138997800398   -3.435184653734
CS    0.342270738082    0.396212509172    4.029293771364
