14

 P   -0.536114941533   -0.229539890999   -4.528761113806
 O   -1.123114941533    0.820460109001   -3.573761113806
 O   -0.802114941533   -0.181539890999   -6.040761113806
 O    1.126885058467   -0.403539890999   -4.241761113806
 O   -0.851114941533   -1.787539890999   -3.936761113806
 C    1.863885058467    0.761460109001   -4.618761113806
 H    1.532885058467    1.644460109001   -4.042761113806
 H    1.748885058467    0.972460109001   -5.696761113806
 H    2.923885058467    0.559460109001   -4.398761113806
 C   -2.242114941533   -2.110539890999   -3.986761113806
 H   -2.620114941533   -2.083539890999   -5.024761113806
 H   -2.835114941533   -1.411539890999   -3.370761113806
 H   -2.352114941533   -3.130539890999   -3.586761113806
CS    0.369747407082    0.388257667633    4.171854617546
