14

 P   -0.555591145709   -0.223901284733   -4.629812087187
 O   -1.142591145709    0.826098715267   -3.674812087187
 O   -0.821591145709   -0.175901284733   -6.141812087187
 O    1.107408854291   -0.397901284733   -4.342812087187
 O   -0.870591145709   -1.781901284733   -4.037812087187
 C    1.844408854291    0.767098715267   -4.719812087187
 H    1.513408854291    1.650098715267   -4.143812087187
 H    1.729408854291    0.978098715267   -5.797812087187
 H    2.904408854291    0.565098715267   -4.499812087187
 C   -2.261591145709   -2.104901284733   -4.087812087187
 H   -2.639591145709   -2.077901284733   -5.125812087187
 H   -2.854591145709   -1.405901284733   -3.471812087187
 H   -2.371591145709   -3.124901284733   -3.687812087187
CS    0.388065186416    0.382954439940    4.266895181668
