14

 P   -0.633495962412   -0.201346859669   -5.034015980711
 O   -1.220495962412    0.848653140331   -4.079015980711
 O   -0.899495962412   -0.153346859669   -6.546015980711
 O    1.029504037588   -0.375346859669   -4.747015980711
 O   -0.948495962412   -1.759346859669   -4.442015980711
 C    1.766504037588    0.789653140331   -5.124015980711
 H    1.435504037588    1.672653140331   -4.548015980711
 H    1.651504037588    1.000653140331   -6.202015980711
 H    2.826504037588    0.587653140331   -4.904015980711
 C   -2.339495962412   -2.082346859669   -4.492015980711
 H   -2.717495962412   -2.055346859669   -5.530015980711
 H   -2.932495962412   -1.383346859669   -3.876015980711
 H   -2.449495962412   -3.102346859669   -4.092015980711
CS    0.461336303749    0.361741529170    4.647057438154
