14

 P   -0.691924574940   -0.184431040870   -5.337168900854
 O   -1.278924574940    0.865568959130   -4.382168900854
 O   -0.957924574940   -0.136431040870   -6.849168900854
 O    0.971075425060   -0.358431040870   -5.050168900854
 O   -1.006924574940   -1.742431040870   -4.745168900854
 C    1.708075425060    0.806568959130   -5.427168900854
 H    1.377075425060    1.689568959130   -4.851168900854
 H    1.593075425060    1.017568959130   -6.505168900854
 H    2.768075425060    0.604568959130   -5.207168900854
 C   -2.397924574940   -2.065431040870   -4.795168900854
 H   -2.775924574940   -2.038431040870   -5.833168900854
 H   -2.990924574940   -1.366431040870   -4.179168900854
 H   -2.507924574940   -3.085431040870   -4.395168900854
CS    0.516289641749    0.345831846092    4.932179130518
