14

 P   -0.701662677028   -0.181611737737   -5.387694387544
 O   -1.288662677028    0.868388262263   -4.432694387544
 O   -0.967662677028   -0.133611737737   -6.899694387544
 O    0.961337322972   -0.355611737737   -5.100694387544
 O   -1.016662677028   -1.739611737737   -4.795694387544
 C    1.698337322972    0.809388262263   -5.477694387544
 H    1.367337322972    1.692388262263   -4.901694387544
 H    1.583337322972    1.020388262263   -6.555694387544
 H    2.758337322972    0.607388262263   -5.257694387544
 C   -2.407662677028   -2.062611737737   -4.845694387544
 H   -2.785662677028   -2.035611737737   -5.883694387544
 H   -3.000662677028   -1.363611737737   -4.229694387544
 H   -2.517662677028   -3.082611737737   -4.445694387544
CS    0.525448531416    0.343180232246    4.979699412579
