14

 P   -0.721138881204   -0.175973131471   -5.488745360925
 O   -1.308138881204    0.874026868529   -4.533745360925
 O   -0.987138881204   -0.127973131471   -7.000745360925
 O    0.941861118796   -0.349973131471   -5.201745360925
 O   -1.036138881204   -1.733973131471   -4.896745360925
 C    1.678861118796    0.815026868529   -5.578745360925
 H    1.347861118796    1.698026868529   -5.002745360925
 H    1.563861118796    1.026026868529   -6.656745360925
 H    2.738861118796    0.613026868529   -5.358745360925
 C   -2.427138881204   -2.056973131471   -4.946745360925
 H   -2.805138881204   -2.029973131471   -5.984745360925
 H   -3.020138881204   -1.357973131471   -4.330745360925
 H   -2.537138881204   -3.076973131471   -4.546745360925
CS    0.543766310749    0.337877004554    5.074739976701
