10

 C    0.748590131426    0.860497467549    0.303056987502
 H    1.142077131426    1.873626467549    0.303276987502
 C    1.360623131426   -0.389610532451    0.303092987502
 H    2.426330131426   -0.608337532451    0.302998987502
 N   -0.606497868574    0.591529467549    0.303044987502
 H   -1.351431868574    1.278179467549    0.303298987502
 C   -0.764303868574   -0.772510532451    0.303099987502
 H   -1.741927868574   -1.248526532451    0.302973987502
 N    0.414612131426   -1.399105532451    0.303088987502
NA   -0.605951593975    0.592566004908   -0.896954440487
