10

 C    0.748555639745    0.860432020765    0.378824737989
 H    1.142042639745    1.873561020765    0.379044737989
 C    1.360588639745   -0.389675979235    0.378860737989
 H    2.426295639745   -0.608402979235    0.378766737989
 N   -0.606532360255    0.591464020765    0.378812737989
 H   -1.351466360255    1.278114020765    0.379066737989
 C   -0.764338360255   -0.772575979235    0.378867737989
 H   -1.741962360255   -1.248591979235    0.378741737989
 N    0.414577639745   -1.399170979235    0.378856737989
NA   -0.605849517006    0.592759692463   -1.121186546997
