10

 C    0.748532645291    0.860388389575    0.429336571647
 H    1.142019645291    1.873517389575    0.429556571647
 C    1.360565645291   -0.389719610425    0.429372571647
 H    2.426272645291   -0.608446610425    0.429278571647
 N   -0.606555354709    0.591420389575    0.429324571647
 H   -1.351489354709    1.278070389575    0.429578571647
 C   -0.764361354709   -0.772619610425    0.429379571647
 H   -1.741985354709   -1.248635610425    0.429253571647
 N    0.414554645291   -1.399214610425    0.429368571647
NA   -0.605781465693    0.592888817500   -1.270674618004
