10

 C    0.748486656382    0.860301127196    0.530360238963
 H    1.141973656382    1.873430127196    0.530580238963
 C    1.360519656382   -0.389806872804    0.530396238963
 H    2.426226656382   -0.608533872804    0.530302238963
 N   -0.606601343618    0.591333127196    0.530348238963
 H   -1.351535343618    1.277983127196    0.530602238963
 C   -0.764407343618   -0.772706872804    0.530403238963
 H   -1.742031343618   -1.248722872804    0.530277238963
 N    0.414508656382   -1.399301872804    0.530392238963
NA   -0.605645363068    0.593147067573   -1.569650760018
