10

 C    0.748440667474    0.860213864816    0.631383906280
 H    1.141927667474    1.873342864816    0.631603906280
 C    1.360473667474   -0.389894135184    0.631419906280
 H    2.426180667474   -0.608621135184    0.631325906280
 N   -0.606647332526    0.591245864816    0.631371906280
 H   -1.351581332526    1.277895864816    0.631625906280
 C   -0.764453332526   -0.772794135184    0.631426906280
 H   -1.742077332526   -1.248810135184    0.631300906280
 N    0.414462667474   -1.399389135184    0.631415906280
NA   -0.605509260443    0.593405317647   -1.868626902031
