10

 C    0.748383181339    0.860104786842    0.757663490425
 H    1.141870181339    1.873233786842    0.757883490425
 C    1.360416181339   -0.390003213158    0.757699490425
 H    2.426123181339   -0.608730213158    0.757605490425
 N   -0.606704818661    0.591136786842    0.757651490425
 H   -1.351638818661    1.277786786842    0.757905490425
 C   -0.764510818661   -0.772903213158    0.757706490425
 H   -1.742134818661   -1.248919213158    0.757580490425
 N    0.414405181339   -1.399498213158    0.757695490425
NA   -0.605339132162    0.593728130239   -2.242347079548
