10

 C    0.748360186885    0.860061155653    0.808175324083
 H    1.141847186885    1.873190155653    0.808395324083
 C    1.360393186885   -0.390046844347    0.808211324083
 H    2.426100186885   -0.608773844347    0.808117324083
 N   -0.606727813115    0.591093155653    0.808163324083
 H   -1.351661813115    1.277743155653    0.808417324083
 C   -0.764533813115   -0.772946844347    0.808218324083
 H   -1.742157813115   -1.248962844347    0.808092324083
 N    0.414382186885   -1.399541844347    0.808207324083
NA   -0.605271080849    0.593857255275   -2.391835150555
