10

 C    0.748348689658    0.860039340058    0.833431240912
 H    1.141835689658    1.873168340058    0.833651240912
 C    1.360381689658   -0.390068659942    0.833467240912
 H    2.426088689658   -0.608795659942    0.833373240912
 N   -0.606739310342    0.591071340058    0.833419240912
 H   -1.351673310342    1.277721340058    0.833673240912
 C   -0.764545310342   -0.772968659942    0.833474240912
 H   -1.742169310342   -1.248984659942    0.833348240912
 N    0.414370689658   -1.399563659942    0.833463240912
NA   -0.605237055193    0.593921817794   -2.466579186058
