10

 C    0.748337192431    0.860017524463    0.858687157741
 H    1.141824192431    1.873146524463    0.858907157741
 C    1.360370192431   -0.390090475537    0.858723157741
 H    2.426077192431   -0.608817475537    0.858629157741
 N   -0.606750807569    0.591049524463    0.858675157741
 H   -1.351684807569    1.277699524463    0.858929157741
 C   -0.764556807569   -0.772990475537    0.858730157741
 H   -1.742180807569   -1.249006475537    0.858604157741
 N    0.414359192431   -1.399585475537    0.858719157741
NA   -0.605203029537    0.593986380312   -2.541323221562
