10

 C    0.748325695204    0.859995708868    0.883943074570
 H    1.141812695204    1.873124708868    0.884163074570
 C    1.360358695204   -0.390112291132    0.883979074570
 H    2.426065695204   -0.608839291132    0.883885074570
 N   -0.606762304796    0.591027708868    0.883931074570
 H   -1.351696304796    1.277677708868    0.884185074570
 C   -0.764568304796   -0.773012291132    0.883986074570
 H   -1.742192304796   -1.249028291132    0.883860074570
 N    0.414347695204   -1.399607291132    0.883975074570
NA   -0.605169003881    0.594050942830   -2.616067257065
