10

 C    0.748302700750    0.859952077678    0.934454908228
 H    1.141789700750    1.873081077678    0.934674908228
 C    1.360335700750   -0.390155922322    0.934490908228
 H    2.426042700750   -0.608882922322    0.934396908228
 N   -0.606785299250    0.590984077678    0.934442908228
 H   -1.351719299250    1.277634077678    0.934696908228
 C   -0.764591299250   -0.773055922322    0.934497908228
 H   -1.742215299250   -1.249071922322    0.934371908228
 N    0.414324700750   -1.399650922322    0.934486908228
NA   -0.605100952568    0.594180067867   -2.765555328072
