10

 C    0.748291203523    0.859930262084    0.959710825057
 H    1.141778203523    1.873059262084    0.959930825057
 C    1.360324203523   -0.390177737916    0.959746825057
 H    2.426031203523   -0.608904737916    0.959652825057
 N   -0.606796796477    0.590962262084    0.959698825057
 H   -1.351730796477    1.277612262084    0.959952825057
 C   -0.764602796477   -0.773077737916    0.959753825057
 H   -1.742226796477   -1.249093737916    0.959627825057
 N    0.414313203523   -1.399672737916    0.959742825057
NA   -0.605066926912    0.594244630386   -2.840299363575
