10

 C    0.748279706296    0.859908446489    0.984966741886
 H    1.141766706296    1.873037446489    0.985186741886
 C    1.360312706296   -0.390199553511    0.985002741886
 H    2.426019706296   -0.608926553511    0.984908741886
 N   -0.606808293704    0.590940446489    0.984954741886
 H   -1.351742293704    1.277590446489    0.985208741886
 C   -0.764614293704   -0.773099553511    0.985009741886
 H   -1.742238293704   -1.249115553511    0.984883741886
 N    0.414301706296   -1.399694553511    0.984998741886
NA   -0.605032901255    0.594309192904   -2.915043399079
