10

 C    0.748233717388    0.859821184109    1.085990409202
 H    1.141720717388    1.872950184109    1.086210409202
 C    1.360266717388   -0.390286815891    1.086026409202
 H    2.425973717388   -0.609013815891    1.085932409202
 N   -0.606854282612    0.590853184109    1.085978409202
 H   -1.351788282612    1.277503184109    1.086232409202
 C   -0.764660282612   -0.773186815891    1.086033409202
 H   -1.742284282612   -1.249202815891    1.085907409202
 N    0.414255717388   -1.399781815891    1.086022409202
NA   -0.604896798630    0.594567442978   -3.214019541092
