10

 C    0.748210722934    0.859777552920    1.136502242860
 H    1.141697722934    1.872906552920    1.136722242860
 C    1.360243722934   -0.390330447080    1.136538242860
 H    2.425950722934   -0.609057447080    1.136444242860
 N   -0.606877277066    0.590809552920    1.136490242860
 H   -1.351811277066    1.277459552920    1.136744242860
 C   -0.764683277066   -0.773230447080    1.136545242860
 H   -1.742307277066   -1.249246447080    1.136419242860
 N    0.414232722934   -1.399825447080    1.136534242860
NA   -0.604828747318    0.594696568014   -3.363507612099
