10

 C    0.748199225707    0.859755737325    1.161758159690
 H    1.141686225707    1.872884737325    1.161978159690
 C    1.360232225707   -0.390352262675    1.161794159690
 H    2.425939225707   -0.609079262675    1.161700159690
 N   -0.606888774293    0.590787737325    1.161746159690
 H   -1.351822774293    1.277437737325    1.162000159690
 C   -0.764694774293   -0.773252262675    1.161801159690
 H   -1.742318774293   -1.249268262675    1.161675159690
 N    0.414221225707   -1.399847262675    1.161790159690
NA   -0.604794721662    0.594761130533   -3.438251647602
