10

 C    0.748187728480    0.859733921730    1.187014076519
 H    1.141674728480    1.872862921730    1.187234076519
 C    1.360220728480   -0.390374078270    1.187050076519
 H    2.425927728480   -0.609101078270    1.186956076519
 N   -0.606900271520    0.590765921730    1.187002076519
 H   -1.351834271520    1.277415921730    1.187256076519
 C   -0.764706271520   -0.773274078270    1.187057076519
 H   -1.742330271520   -1.249290078270    1.186931076519
 N    0.414209728480   -1.399869078270    1.187046076519
NA   -0.604760696005    0.594825693051   -3.512995683106
