10

 C    0.748176231253    0.859712106135    1.212269993348
 H    1.141663231253    1.872841106135    1.212489993348
 C    1.360209231253   -0.390395893865    1.212305993348
 H    2.425916231253   -0.609122893865    1.212211993348
 N   -0.606911768747    0.590744106135    1.212257993348
 H   -1.351845768747    1.277394106135    1.212511993348
 C   -0.764717768747   -0.773295893865    1.212312993348
 H   -1.742341768747   -1.249311893865    1.212186993348
 N    0.414198231253   -1.399890893865    1.212301993348
NA   -0.604726670349    0.594890255569   -3.587739718609
