10

 C    0.748153236799    0.859668474946    1.262781827006
 H    1.141640236799    1.872797474946    1.263001827006
 C    1.360186236799   -0.390439525054    1.262817827006
 H    2.425893236799   -0.609166525054    1.262723827006
 N   -0.606934763201    0.590700474946    1.262769827006
 H   -1.351868763201    1.277350474946    1.263023827006
 C   -0.764740763201   -0.773339525054    1.262824827006
 H   -1.742364763201   -1.249355525054    1.262698827006
 N    0.414175236799   -1.399934525054    1.262813827006
NA   -0.604658619037    0.595019380606   -3.737227789616
