10

 C    0.748141739572    0.859646659351    1.288037743835
 H    1.141628739572    1.872775659351    1.288257743835
 C    1.360174739572   -0.390461340649    1.288073743835
 H    2.425881739572   -0.609188340649    1.287979743835
 N   -0.606946260428    0.590678659351    1.288025743835
 H   -1.351880260428    1.277328659351    1.288279743835
 C   -0.764752260428   -0.773361340649    1.288080743835
 H   -1.742376260428   -1.249377340649    1.287954743835
 N    0.414163739572   -1.399956340649    1.288069743835
NA   -0.604624593380    0.595083943125   -3.811971825119
