10

 C    0.748095750664    0.859559396972    1.389061411151
 H    1.141582750664    1.872688396972    1.389281411151
 C    1.360128750664   -0.390548603028    1.389097411151
 H    2.425835750664   -0.609275603028    1.389003411151
 N   -0.606992249336    0.590591396972    1.389049411151
 H   -1.351926249336    1.277241396972    1.389303411151
 C   -0.764798249336   -0.773448603028    1.389104411151
 H   -1.742422249336   -1.249464603028    1.388978411151
 N    0.414117750664   -1.400043603028    1.389093411151
NA   -0.604488490755    0.595342193198   -4.110947967133
