10

 C    0.748084253437    0.859537581377    1.414317327980
 H    1.141571253437    1.872666581377    1.414537327980
 C    1.360117253437   -0.390570418623    1.414353327980
 H    2.425824253437   -0.609297418623    1.414259327980
 N   -0.607003746563    0.590569581377    1.414305327980
 H   -1.351937746563    1.277219581377    1.414559327980
 C   -0.764809746563   -0.773470418623    1.414360327980
 H   -1.742433746563   -1.249486418623    1.414234327980
 N    0.414106253437   -1.400065418623    1.414349327980
NA   -0.604454465099    0.595406755716   -4.185692002636
