10

 C    0.748072756210    0.859515765782    1.439573244809
 H    1.141559756210    1.872644765782    1.439793244809
 C    1.360105756210   -0.390592234218    1.439609244809
 H    2.425812756210   -0.609319234218    1.439515244809
 N   -0.607015243790    0.590547765782    1.439561244809
 H   -1.351949243790    1.277197765782    1.439815244809
 C   -0.764821243790   -0.773492234218    1.439616244809
 H   -1.742445243790   -1.249508234218    1.439490244809
 N    0.414094756210   -1.400087234218    1.439605244809
NA   -0.604420439443    0.595471318235   -4.260436038140
