10

 C    0.747934789485    0.859253978644    1.742644246758
 H    1.141421789485    1.872382978644    1.742864246758
 C    1.359967789485   -0.390854021356    1.742680246758
 H    2.425674789485   -0.609581021356    1.742586246758
 N   -0.607153210515    0.590285978644    1.742632246758
 H   -1.352087210515    1.276935978644    1.742886246758
 C   -0.764959210515   -0.773754021356    1.742687246758
 H   -1.742583210515   -1.249770021356    1.742561246758
 N    0.413956789485   -1.400349021356    1.742676246758
NA   -0.604012131567    0.596246068455   -5.157364464180
