10

 C    0.747865806123    0.859123085075    1.894179747732
 H    1.141352806123    1.872252085075    1.894399747732
 C    1.359898806123   -0.390984914925    1.894215747732
 H    2.425605806123   -0.609711914925    1.894121747732
 N   -0.607222193877    0.590155085075    1.894167747732
 H   -1.352156193877    1.276805085075    1.894421747732
 C   -0.765028193877   -0.773884914925    1.894222747732
 H   -1.742652193877   -1.249900914925    1.894096747732
 N    0.413887806123   -1.400479914925    1.894211747732
NA   -0.603807977630    0.596633443566   -5.605828677200
