10

 C    0.747842811669    0.859079453885    1.944691581390
 H    1.141329811669    1.872208453885    1.944911581390
 C    1.359875811669   -0.391028546115    1.944727581390
 H    2.425582811669   -0.609755546115    1.944633581390
 N   -0.607245188331    0.590111453885    1.944679581390
 H   -1.352179188331    1.276761453885    1.944933581390
 C   -0.765051188331   -0.773928546115    1.944734581390
 H   -1.742675188331   -1.249944546115    1.944608581390
 N    0.413864811669   -1.400523546115    1.944723581390
NA   -0.603739926317    0.596762568602   -5.755316748207
