10

 C    0.747831314442    0.859057638290    1.969947498219
 H    1.141318314442    1.872186638290    1.970167498219
 C    1.359864314442   -0.391050361710    1.969983498219
 H    2.425571314442   -0.609777361710    1.969889498219
 N   -0.607256685558    0.590089638290    1.969935498219
 H   -1.352190685558    1.276739638290    1.970189498219
 C   -0.765062685558   -0.773950361710    1.969990498219
 H   -1.742686685558   -1.249966361710    1.969864498219
 N    0.413853314442   -1.400545361710    1.969979498219
NA   -0.603705900661    0.596827131121   -5.830060783711
