10

 C    0.747808319988    0.859014007101    2.020459331877
 H    1.141295319988    1.872143007101    2.020679331877
 C    1.359841319988   -0.391093992899    2.020495331877
 H    2.425548319988   -0.609820992899    2.020401331877
 N   -0.607279680012    0.590046007101    2.020447331877
 H   -1.352213680012    1.276696007101    2.020701331877
 C   -0.765085680012   -0.773993992899    2.020502331877
 H   -1.742709680012   -1.250009992899    2.020376331877
 N    0.413830319988   -1.400588992899    2.020491331877
NA   -0.603637849348    0.596956256158   -5.979548854717
