10

 C    0.747796822761    0.858992191506    2.045715248706
 H    1.141283822761    1.872121191506    2.045935248706
 C    1.359829822761   -0.391115808494    2.045751248706
 H    2.425536822761   -0.609842808494    2.045657248706
 N   -0.607291177239    0.590024191506    2.045703248706
 H   -1.352225177239    1.276674191506    2.045957248706
 C   -0.765097177239   -0.774015808494    2.045758248706
 H   -1.742721177239   -1.250031808494    2.045632248706
 N    0.413818822761   -1.400610808494    2.045747248706
NA   -0.603603823692    0.597020818676   -6.054292890221
