10

 C    0.747785325534    0.858970375911    2.070971165535
 H    1.141272325534    1.872099375911    2.071191165535
 C    1.359818325534   -0.391137624089    2.071007165535
 H    2.425525325534   -0.609864624089    2.070913165535
 N   -0.607302674466    0.590002375911    2.070959165535
 H   -1.352236674466    1.276652375911    2.071213165535
 C   -0.765108674466   -0.774037624089    2.071014165535
 H   -1.742732674466   -1.250053624089    2.070888165535
 N    0.413807325534   -1.400632624089    2.071003165535
NA   -0.603569798036    0.597085381194   -6.129036925724
