10

 C    0.747773828307    0.858948560316    2.096227082364
 H    1.141260828307    1.872077560316    2.096447082364
 C    1.359806828307   -0.391159439684    2.096263082364
 H    2.425513828307   -0.609886439684    2.096169082364
 N   -0.607314171693    0.589980560316    2.096215082364
 H   -1.352248171693    1.276630560316    2.096469082364
 C   -0.765120171693   -0.774059439684    2.096270082364
 H   -1.742744171693   -1.250075439684    2.096144082364
 N    0.413795828307   -1.400654439684    2.096259082364
NA   -0.603535772380    0.597149943713   -6.203780961228
