10

 C    0.747750833853    0.858904929127    2.146738916022
 H    1.141237833853    1.872033929127    2.146958916022
 C    1.359783833853   -0.391203070873    2.146774916022
 H    2.425490833853   -0.609930070873    2.146680916022
 N   -0.607337166147    0.589936929127    2.146726916022
 H   -1.352271166147    1.276586929127    2.146980916022
 C   -0.765143166147   -0.774103070873    2.146781916022
 H   -1.742767166147   -1.250119070873    2.146655916022
 N    0.413772833853   -1.400698070873    2.146770916022
NA   -0.603467721067    0.597279068749   -6.353269032234
