10

 C    0.747658856037    0.858730404368    2.348786250655
 H    1.141145856037    1.871859404368    2.349006250655
 C    1.359691856037   -0.391377595632    2.348822250655
 H    2.425398856037   -0.610104595632    2.348728250655
 N   -0.607429143963    0.589762404368    2.348774250655
 H   -1.352363143963    1.276412404368    2.349028250655
 C   -0.765235143963   -0.774277595632    2.348829250655
 H   -1.742859143963   -1.250293595632    2.348703250655
 N    0.413680856037   -1.400872595632    2.348818250655
NA   -0.603195515817    0.597795568897   -6.951221316261
