10

 C    0.747635861583    0.858686773178    2.399298084313
 H    1.141122861583    1.871815773178    2.399518084313
 C    1.359668861583   -0.391421226822    2.399334084313
 H    2.425375861583   -0.610148226822    2.399240084313
 N   -0.607452138417    0.589718773178    2.399286084313
 H   -1.352386138417    1.276368773178    2.399540084313
 C   -0.765258138417   -0.774321226822    2.399341084313
 H   -1.742882138417   -1.250337226822    2.399215084313
 N    0.413657861583   -1.400916226822    2.399330084313
NA   -0.603127464504    0.597924693933   -7.100709387268
