10

 C    0.747601369902    0.858621326394    2.475065834800
 H    1.141088369902    1.871750326394    2.475285834800
 C    1.359634369902   -0.391486673606    2.475101834800
 H    2.425341369902   -0.610213673606    2.475007834800
 N   -0.607486630098    0.589653326394    2.475053834800
 H   -1.352420630098    1.276303326394    2.475307834800
 C   -0.765292630098   -0.774386673606    2.475108834800
 H   -1.742916630098   -1.250402673606    2.474982834800
 N    0.413623369902   -1.400981673606    2.475097834800
NA   -0.603025387536    0.598118381488   -7.324941493778
