10

 C    1.465118974742   -0.840016757802   -0.896867696925
 C    0.365819974742    0.208843242198   -0.896867696925
 N   -0.913788025258   -0.294945757802   -0.896867696925
 H   -1.688461025258    0.355638242198   -0.896867696925
 H   -1.100459025258   -1.286996757802   -0.896867696925
 O    0.587411974742    1.421845242198   -0.896867696925
 H    2.435783974742   -0.330871757802   -0.896867696925
 H    1.385480974742   -1.481021757802   -0.004620696925
 H    1.385480974742   -1.481021757802   -1.789114696925
NA   -0.913788025258   -0.294945757802    2.303132303075
