10

 C    1.465118974742   -0.840016757802   -1.008976159041
 C    0.365819974742    0.208843242198   -1.008976159041
 N   -0.913788025258   -0.294945757802   -1.008976159041
 H   -1.688461025258    0.355638242198   -1.008976159041
 H   -1.100459025258   -1.286996757802   -1.008976159041
 O    0.587411974742    1.421845242198   -1.008976159041
 H    2.435783974742   -0.330871757802   -1.008976159041
 H    1.385480974742   -1.481021757802   -0.116729159041
 H    1.385480974742   -1.481021757802   -1.901223159041
NA   -0.913788025258   -0.294945757802    2.591023840959
