10

 C    1.465118974742   -0.840016757802   -1.037003274570
 C    0.365819974742    0.208843242198   -1.037003274570
 N   -0.913788025258   -0.294945757802   -1.037003274570
 H   -1.688461025258    0.355638242198   -1.037003274570
 H   -1.100459025258   -1.286996757802   -1.037003274570
 O    0.587411974742    1.421845242198   -1.037003274570
 H    2.435783974742   -0.330871757802   -1.037003274570
 H    1.385480974742   -1.481021757802   -0.144756274570
 H    1.385480974742   -1.481021757802   -1.929250274570
NA   -0.913788025258   -0.294945757802    2.662996725430
