10

 C    1.465118974742   -0.840016757802   -1.681626931735
 C    0.365819974742    0.208843242198   -1.681626931735
 N   -0.913788025258   -0.294945757802   -1.681626931735
 H   -1.688461025258    0.355638242198   -1.681626931735
 H   -1.100459025258   -1.286996757802   -1.681626931735
 O    0.587411974742    1.421845242198   -1.681626931735
 H    2.435783974742   -0.330871757802   -1.681626931735
 H    1.385480974742   -1.481021757802   -0.789379931735
 H    1.385480974742   -1.481021757802   -2.573873931735
NA   -0.913788025258   -0.294945757802    4.318373068265
