10

 C    1.465118974742   -0.840016757802   -1.765708278322
 C    0.365819974742    0.208843242198   -1.765708278322
 N   -0.913788025258   -0.294945757802   -1.765708278322
 H   -1.688461025258    0.355638242198   -1.765708278322
 H   -1.100459025258   -1.286996757802   -1.765708278322
 O    0.587411974742    1.421845242198   -1.765708278322
 H    2.435783974742   -0.330871757802   -1.765708278322
 H    1.385480974742   -1.481021757802   -0.873461278322
 H    1.385480974742   -1.481021757802   -2.657955278322
NA   -0.913788025258   -0.294945757802    4.534291721678
