10

 C    1.465118974742   -0.840016757802   -2.522440397603
 C    0.365819974742    0.208843242198   -2.522440397603
 N   -0.913788025258   -0.294945757802   -2.522440397603
 H   -1.688461025258    0.355638242198   -2.522440397603
 H   -1.100459025258   -1.286996757802   -2.522440397603
 O    0.587411974742    1.421845242198   -2.522440397603
 H    2.435783974742   -0.330871757802   -2.522440397603
 H    1.385480974742   -1.481021757802   -1.630193397603
 H    1.385480974742   -1.481021757802   -3.414687397603
NA   -0.913788025258   -0.294945757802    6.477559602397
