10

 C    1.465118974742   -0.840016757802   -2.634548859718
 C    0.365819974742    0.208843242198   -2.634548859718
 N   -0.913788025258   -0.294945757802   -2.634548859718
 H   -1.688461025258    0.355638242198   -2.634548859718
 H   -1.100459025258   -1.286996757802   -2.634548859718
 O    0.587411974742    1.421845242198   -2.634548859718
 H    2.435783974742   -0.330871757802   -2.634548859718
 H    1.385480974742   -1.481021757802   -1.742301859718
 H    1.385480974742   -1.481021757802   -3.526795859718
NA   -0.913788025258   -0.294945757802    6.765451140282
