7

 H   -1.038983600942    1.640573174262   -0.225186490512
 H    0.500575399058    1.731552174262    0.677060509488
 H    0.500575399058    1.731552174262   -1.127433490512
 C    0.016764399058    1.335032174262   -0.225186490512
 S    0.016764399058   -0.497693825738   -0.225186490512
 H    1.357347399058   -0.654084825738   -0.225186490512
LI   -0.294612910007   -0.654574162684    1.540721981430
