7

 H   -1.036777686832    1.641684573644   -0.237696851096
 H    0.502781313168    1.732663573644    0.664550148904
 H    0.502781313168    1.732663573644   -1.139943851096
 C    0.018970313168    1.336143573644   -0.237696851096
 S    0.018970313168   -0.496582426356   -0.237696851096
 H    1.359553313168   -0.652973426356   -0.237696851096
LI   -0.309705735290   -0.662178337577    1.626317647065
