7

 H   -0.858098643974    1.731707923556   -1.251036058402
 H    0.681460356026    1.822686923556   -0.348789058402
 H    0.681460356026    1.822686923556   -2.153283058402
 C    0.197649356026    1.426166923556   -1.251036058402
 S    0.197649356026   -0.406559076444   -1.251036058402
 H    1.538232356026   -0.562950076444   -1.251036058402
LI   -1.532224583225   -1.278116503921    8.559566563502
