7

 H   -1.034571772723    1.642795973025   -0.250207211680
 H    0.504987227277    1.733774973025    0.652039788320
 H    0.504987227277    1.733774973025   -1.152454211680
 C    0.021176227277    1.337254973025   -0.250207211680
 S    0.021176227277   -0.495471026975   -0.250207211680
 H    1.361759227277   -0.651862026975   -0.250207211680
LI   -0.324798560573   -0.669782512470    1.711913312700
