7

 H   -1.030159944504    1.645018771788   -0.275227932849
 H    0.509399055496    1.735997771788    0.627019067151
 H    0.509399055496    1.735997771788   -1.177474932849
 C    0.025588055496    1.339477771788   -0.275227932849
 S    0.025588055496   -0.493248228212   -0.275227932849
 H    1.366171055496   -0.649639228212   -0.275227932849
LI   -0.354984211139   -0.684990862256    1.883104643970
