7

 H   -1.014718545739    1.652798567460   -0.362800456937
 H    0.524840454261    1.743777567460    0.539446543063
 H    0.524840454261    1.743777567460   -1.265047456937
 C    0.041029454261    1.347257567460   -0.362800456937
 S    0.041029454261   -0.485468432540   -0.362800456937
 H    1.381612454261   -0.641859432540   -0.362800456937
LI   -0.460633988121   -0.738220086508    2.482274303415
