7

 H   -1.012512631629    1.653909966842   -0.375310817521
 H    0.527046368371    1.744888966842    0.526936182479
 H    0.527046368371    1.744888966842   -1.277557817521
 C    0.043235368371    1.348368966842   -0.375310817521
 S    0.043235368371   -0.484357033158   -0.375310817521
 H    1.383818368371   -0.640748033158   -0.375310817521
LI   -0.475726813405   -0.745824261401    2.567869969050
