7

 H   -1.001483061082    1.659466963750   -0.437862620441
 H    0.538075938918    1.750445963750    0.464384379559
 H    0.538075938918    1.750445963750   -1.340109620441
 C    0.054264938918    1.353925963750   -0.437862620441
 S    0.054264938918   -0.478800036250   -0.437862620441
 H    1.394847938918   -0.635191036250   -0.437862620441
LI   -0.551190939820   -0.783845135867    2.995848297226
