7

 H   -0.999277146973    1.660578363131   -0.450372981025
 H    0.540281853027    1.751557363131    0.451874018975
 H    0.540281853027    1.751557363131   -1.352619981025
 C    0.056470853027    1.355037363131   -0.450372981025
 S    0.056470853027   -0.477688636869   -0.450372981025
 H    1.397053853027   -0.634079636869   -0.450372981025
LI   -0.566283765103   -0.791449310760    3.081443962861
