7

 H   -0.997071232864    1.661689762513   -0.462883341609
 H    0.542487767136    1.752668762513    0.439363658391
 H    0.542487767136    1.752668762513   -1.365130341609
 C    0.058676767136    1.356148762513   -0.462883341609
 S    0.058676767136   -0.476577237487   -0.462883341609
 H    1.399259767136   -0.632968237487   -0.462883341609
LI   -0.581376590387   -0.799053485653    3.167039628496
