7

 H   -0.994865318754    1.662801161895   -0.475393702193
 H    0.544693681246    1.753780161895    0.426853297807
 H    0.544693681246    1.753780161895   -1.377640702193
 C    0.060882681246    1.357260161895   -0.475393702193
 S    0.060882681246   -0.475465838105   -0.475393702193
 H    1.401465681246   -0.631856838105   -0.475393702193
LI   -0.596469415670   -0.806657660547    3.252635294131
