7

 H   -0.992659404645    1.663912561276   -0.487904062777
 H    0.546899595355    1.754891561276    0.414342937223
 H    0.546899595355    1.754891561276   -1.390151062777
 C    0.063088595355    1.358371561276   -0.487904062777
 S    0.063088595355   -0.474354438724   -0.487904062777
 H    1.403671595355   -0.630745438724   -0.487904062777
LI   -0.611562240953   -0.814261835440    3.338230959766
