7

 H   -0.981629834098    1.669469558184   -0.550455865697
 H    0.557929165902    1.760448558184    0.351791134303
 H    0.557929165902    1.760448558184   -1.452702865697
 C    0.074118165902    1.363928558184   -0.550455865697
 S    0.074118165902   -0.468797441816   -0.550455865697
 H    1.414701165902   -0.625188441816   -0.550455865697
LI   -0.687026367369   -0.852282709905    3.766209287941
