7

 H   -0.977218005880    1.671692356948   -0.575476586865
 H    0.562340994120    1.762671356948    0.326770413135
 H    0.562340994120    1.762671356948   -1.477723586865
 C    0.078529994120    1.366151356948   -0.575476586865
 S    0.078529994120   -0.466574643052   -0.575476586865
 H    1.419112994120   -0.622965643052   -0.575476586865
LI   -0.717212017935   -0.867491059692    3.937400619211
