7

 H   -0.975012091770    1.672803756329   -0.587986947449
 H    0.564546908230    1.763782756329    0.314260052551
 H    0.564546908230    1.763782756329   -1.490233947449
 C    0.080735908230    1.367262756329   -0.587986947449
 S    0.080735908230   -0.465463243671   -0.587986947449
 H    1.421318908230   -0.621854243671   -0.587986947449
LI   -0.732304843218   -0.875095234585    4.022996284846
