7

 H   -0.972806177661    1.673915155711   -0.600497308033
 H    0.566752822339    1.764894155711    0.301749691967
 H    0.566752822339    1.764894155711   -1.502744308033
 C    0.082941822339    1.368374155711   -0.600497308033
 S    0.082941822339   -0.464351844289   -0.600497308033
 H    1.423524822339   -0.620742844289   -0.600497308033
LI   -0.747397668501   -0.882699409478    4.108591950481
