7

 H   -0.970600263551    1.675026555093   -0.613007668617
 H    0.568958736449    1.766005555093    0.289239331383
 H    0.568958736449    1.766005555093   -1.515254668617
 C    0.085147736449    1.369485555093   -0.613007668617
 S    0.085147736449   -0.463240444907   -0.613007668617
 H    1.425730736449   -0.619631444907   -0.613007668617
LI   -0.762490493784   -0.890303584371    4.194187616116
