7

 H   -0.963982521223    1.678360753237   -0.650538750369
 H    0.575576478777    1.769339753237    0.251708249631
 H    0.575576478777    1.769339753237   -1.552785750369
 C    0.091765478777    1.372819753237   -0.650538750369
 S    0.091765478777   -0.459906246763   -0.650538750369
 H    1.432348478777   -0.616297246763   -0.650538750369
LI   -0.807768969634   -0.913116109050    4.450974613021
