7

 H   -0.961776607114    1.679472152619   -0.663049110953
 H    0.577782392886    1.770451152619    0.239197889047
 H    0.577782392886    1.770451152619   -1.565296110953
 C    0.093971392886    1.373931152619   -0.663049110953
 S    0.093971392886   -0.458794847381   -0.663049110953
 H    1.434554392886   -0.615185847381   -0.663049110953
LI   -0.822861794917   -0.920720283944    4.536570278656
