7

 H   -0.959570693005    1.680583552001   -0.675559471537
 H    0.579988306995    1.771562552001    0.226687528463
 H    0.579988306995    1.771562552001   -1.577806471537
 C    0.096177306995    1.375042552001   -0.675559471537
 S    0.096177306995   -0.457683447999   -0.675559471537
 H    1.436760306995   -0.614074447999   -0.675559471537
LI   -0.837954620200   -0.928324458837    4.622165944291
