7

 H   -0.957364778895    1.681694951382   -0.688069832121
 H    0.582194221105    1.772673951382    0.214177167879
 H    0.582194221105    1.772673951382   -1.590316832121
 C    0.098383221105    1.376153951382   -0.688069832121
 S    0.098383221105   -0.456572048618   -0.688069832121
 H    1.438966221105   -0.612963048618   -0.688069832121
LI   -0.853047445483   -0.935928633730    4.707761609926
