7

 H   -0.952952950677    1.683917750146   -0.713090553289
 H    0.586606049323    1.774896750146    0.189156446711
 H    0.586606049323    1.774896750146   -1.615337553289
 C    0.102795049323    1.378376750146   -0.713090553289
 S    0.102795049323   -0.454349249854   -0.713090553289
 H    1.443378049323   -0.610740249854   -0.713090553289
LI   -0.883233096050   -0.951136983516    4.878952941196
