7

 H   -0.950747036567    1.685029149527   -0.725600913873
 H    0.588811963433    1.776008149527    0.176646086127
 H    0.588811963433    1.776008149527   -1.627847913873
 C    0.105000963433    1.379488149527   -0.725600913873
 S    0.105000963433   -0.453237850473   -0.725600913873
 H    1.445583963433   -0.609628850473   -0.725600913873
LI   -0.898325921333   -0.958741158409    4.964548606831
