7

 H   -0.941923380130    1.689474747054   -0.775642356210
 H    0.597635619870    1.780453747054    0.126604643790
 H    0.597635619870    1.780453747054   -1.677889356210
 C    0.113824619870    1.383933747054   -0.775642356210
 S    0.113824619870   -0.448792252946   -0.775642356210
 H    1.454407619870   -0.605183252946   -0.775642356210
LI   -0.958697222465   -0.989157857982    5.306931269371
