7

 H   -0.939717466021    1.690586146435   -0.788152716794
 H    0.599841533979    1.781565146435    0.114094283206
 H    0.599841533979    1.781565146435   -1.690399716794
 C    0.116030533979    1.385045146435   -0.788152716794
 S    0.116030533979   -0.447680853565   -0.788152716794
 H    1.456613533979   -0.604071853565   -0.788152716794
LI   -0.973790047749   -0.996762032875    5.392526935006
