7

 H   -0.930893809583    1.695031743962   -0.838194159130
 H    0.608665190417    1.786010743962    0.064052840870
 H    0.608665190417    1.786010743962   -1.740441159130
 C    0.124854190417    1.389490743962   -0.838194159130
 S    0.124854190417   -0.443235256038   -0.838194159130
 H    1.465437190417   -0.599626256038   -0.838194159130
LI   -1.034161348881   -1.027178732447    5.734909597546
