7

 H   -0.924276067255    1.698365942107   -0.875725240882
 H    0.615282932745    1.789344942107    0.026521759118
 H    0.615282932745    1.789344942107   -1.777972240882
 C    0.131471932745    1.392824942107   -0.875725240882
 S    0.131471932745   -0.439901057893   -0.875725240882
 H    1.472054932745   -0.596292057893   -0.875725240882
LI   -1.079439824731   -1.049991257127    5.991696594451
