7

 H   -0.922070153146    1.699477341488   -0.888235601466
 H    0.617488846854    1.790456341488    0.014011398534
 H    0.617488846854    1.790456341488   -1.790482601466
 C    0.133677846854    1.393936341488   -0.888235601466
 S    0.133677846854   -0.438789658512   -0.888235601466
 H    1.474260846854   -0.595180658512   -0.888235601466
LI   -1.094532650014   -1.057595432020    6.077292260086
