7

 H   -0.915452410818    1.702811539633   -0.925766683218
 H    0.624106589182    1.793790539633   -0.023519683218
 H    0.624106589182    1.793790539633   -1.828013683218
 C    0.140295589182    1.397270539633   -0.925766683218
 S    0.140295589182   -0.435455460367   -0.925766683218
 H    1.480878589182   -0.591846460367   -0.925766683218
LI   -1.139811125863   -1.080407956699    6.334079256991
