7

 H   -0.913246496708    1.703922939015   -0.938277043802
 H    0.626312503292    1.794901939015   -0.036030043802
 H    0.626312503292    1.794901939015   -1.840524043802
 C    0.142501503292    1.398381939015   -0.938277043802
 S    0.142501503292   -0.434344060985   -0.938277043802
 H    1.483084503292   -0.590735060985   -0.938277043802
LI   -1.154903951146   -1.088012131592    6.419674922626
