7

 H   -0.908834668490    1.706145737778   -0.963297764970
 H    0.630724331510    1.797124737778   -0.061050764970
 H    0.630724331510    1.797124737778   -1.865544764970
 C    0.146913331510    1.400604737778   -0.963297764970
 S    0.146913331510   -0.432121262222   -0.963297764970
 H    1.487496331510   -0.588512262222   -0.963297764970
LI   -1.185089601713   -1.103220481379    6.590866253896
