7

 H   -0.906628754380    1.707257137160   -0.975808125554
 H    0.632930245620    1.798236137160   -0.073561125554
 H    0.632930245620    1.798236137160   -1.878055125554
 C    0.149119245620    1.401716137160   -0.975808125554
 S    0.149119245620   -0.431009862840   -0.975808125554
 H    1.489702245620   -0.587400862840   -0.975808125554
LI   -1.200182426996   -1.110824656272    6.676461919531
