7

 H   -0.897805097943    1.711702734686   -1.025849567890
 H    0.641753902057    1.802681734686   -0.123602567890
 H    0.641753902057    1.802681734686   -1.928096567890
 C    0.157942902057    1.406161734686   -1.025849567890
 S    0.157942902057   -0.426564265314   -1.025849567890
 H    1.498525902057   -0.582955265314   -1.025849567890
LI   -1.260553728129   -1.141241355844    7.018844582071
