7

 H   -0.893393269724    1.713925533450   -1.050870289058
 H    0.646165730276    1.804904533450   -0.148623289058
 H    0.646165730276    1.804904533450   -1.953117289058
 C    0.162354730276    1.408384533450   -1.050870289058
 S    0.162354730276   -0.424341466550   -1.050870289058
 H    1.502937730276   -0.580732466550   -1.050870289058
LI   -1.290739378695   -1.156449705631    7.190035913341
