7

 H   -0.869128214521    1.726150926648   -1.188484255482
 H    0.670430785479    1.817129926648   -0.286237255482
 H    0.670430785479    1.817129926648   -2.090731255482
 C    0.186619785479    1.420609926648   -1.188484255482
 S    0.186619785479   -0.412116073352   -1.188484255482
 H    1.527202785479   -0.568507073352   -1.188484255482
LI   -1.456760456810   -1.240095629455    8.131588235327
