7

 H   -0.864716386302    1.728373725411   -1.213504976650
 H    0.674842613698    1.819352725411   -0.311257976650
 H    0.674842613698    1.819352725411   -2.115751976650
 C    0.191031613698    1.422832725411   -1.213504976650
 S    0.191031613698   -0.409893274589   -1.213504976650
 H    1.531614613698   -0.566284274589   -1.213504976650
LI   -1.486946107376   -1.255303979241    8.302779566597
