7

 H   -0.862510472193    1.729485124792   -1.226015337234
 H    0.677048527807    1.820464124792   -0.323768337234
 H    0.677048527807    1.820464124792   -2.128262337234
 C    0.193237527807    1.423944124792   -1.226015337234
 S    0.193237527807   -0.408781875208   -1.226015337234
 H    1.533820527807   -0.565172875208   -1.226015337234
LI   -1.502038932659   -1.262908154135    8.388375232232
