16

 N   -2.081398361606   -0.908782130866   -0.020719959792
 C   -0.849272629339   -1.539072410874   -0.019764999484
 N   -0.579131693213   -2.859957885842   -0.023229188431
 C    0.748997475250   -3.078151778592   -0.007661759768
 H    1.062805758220   -4.124830511082   -0.004282189077
 N    1.761346918291   -2.170170821451    0.006309510507
 C    1.449130174384   -0.859349738202    0.001663106607
 N    2.456757129186    0.065148899103   -0.040158730324
 H    3.388208666573   -0.265381209649    0.182299203809
 H    2.224019623159    1.025119654142    0.184651515116
 C    0.083629333510   -0.482655884335   -0.007107981108
 N   -0.539899977681    0.756309816295    0.002770227910
 C   -1.839825464838    0.448230427934   -0.005684625248
 H   -2.649878993625    1.174811229036   -0.001636487385
 H   -2.985188038776   -1.369039254700   -0.028323015725
RB   -0.122604599842    1.665012900106    0.013873070215
