16

 N   -2.097506874506   -0.943860054382   -0.021148553752
 C   -0.865381142239   -1.574150334390   -0.020193593444
 N   -0.595240206113   -2.895035809358   -0.023657782391
 C    0.732888962350   -3.113229702108   -0.008090353728
 H    1.046697245320   -4.159908434598   -0.004710783037
 N    1.745238405391   -2.205248744967    0.005880916547
 C    1.433021661484   -0.894427661718    0.001234512647
 N    2.440648616286    0.030070975587   -0.040587324284
 H    3.372100153673   -0.300459133165    0.181870609849
 H    2.207911110259    0.990041730626    0.184222921156
 C    0.067520820610   -0.517733807851   -0.007536575068
 N   -0.556008490581    0.721231892779    0.002341633950
 C   -1.855933977738    0.413152504418   -0.006113219208
 H   -2.665987506525    1.139733305520   -0.002065081345
 H   -3.001296551676   -1.404117178216   -0.028751609685
RB   -0.096983574958    1.720805284970    0.014554760485
