16

 N   -2.129723900305   -1.014015901415   -0.022005741672
 C   -0.897598168038   -1.644306181423   -0.021050781364
 N   -0.627457231912   -2.965191656391   -0.024514970311
 C    0.700671936551   -3.183385549141   -0.008947541648
 H    1.014480219521   -4.230064281631   -0.005567970957
 N    1.713021379592   -2.275404592000    0.005023728627
 C    1.400804635685   -0.964583508751    0.000377324727
 N    2.408431590487   -0.040084871446   -0.041444512204
 H    3.339883127874   -0.370614980198    0.181013421929
 H    2.175694084460    0.919885883593    0.183365733236
 C    0.035303794811   -0.587889654884   -0.008393762988
 N   -0.588225516380    0.651076045746    0.001484446030
 C   -1.888151003537    0.342996657385   -0.006970407128
 H   -2.698204532324    1.069577458487   -0.002922269265
 H   -3.033513577475   -1.474273025249   -0.029608797605
RB   -0.045741525189    1.832390054699    0.015918141026
