16

 N   -2.226374977704   -1.224483442514   -0.024577305433
 C   -0.994249245437   -1.854773722522   -0.023622345125
 N   -0.724108309311   -3.175659197490   -0.027086534072
 C    0.604020859152   -3.393853090240   -0.011519105409
 H    0.917829142122   -4.440531822730   -0.008139534718
 N    1.616370302193   -2.485872133099    0.002452164866
 C    1.304153558286   -1.175051049850   -0.002194239034
 N    2.311780513088   -0.250552412545   -0.044016075965
 H    3.243232050475   -0.581082521297    0.178441858168
 H    2.079043007061    0.709418342494    0.180794169475
 C   -0.061347282588   -0.798357195983   -0.010965326749
 N   -0.684876593779    0.440608504647   -0.001087117731
 C   -1.984802080936    0.132529116286   -0.009541970889
 H   -2.794855609723    0.859109917388   -0.005493833026
 H   -3.130164654874   -1.684740566348   -0.032180361366
RB    0.107984624116    2.167144363887    0.020008282649
