16

 N   -2.258592003504   -1.294639289547   -0.025434493353
 C   -1.026466271237   -1.924929569555   -0.024479533045
 N   -0.756325335111   -3.245815044523   -0.027943721992
 C    0.571803833352   -3.464008937273   -0.012376293329
 H    0.885612116322   -4.510687669763   -0.008996722638
 N    1.584153276393   -2.556027980132    0.001594976946
 C    1.271936532486   -1.245206896883   -0.003051426954
 N    2.279563487288   -0.320708259578   -0.044873263885
 H    3.211015024675   -0.651238368330    0.177584670248
 H    2.046825981261    0.639262495461    0.179936981555
 C   -0.093564308388   -0.868513043016   -0.011822514669
 N   -0.717093619579    0.370452657614   -0.001944305651
 C   -2.017019106736    0.062373269253   -0.010399158809
 H   -2.827072635523    0.788954070355   -0.006351020946
 H   -3.162381680674   -1.754896413381   -0.033037549286
RB    0.159226673884    2.278729133616    0.021371663190
