16

 N   -2.274700516403   -1.329717213064   -0.025863087313
 C   -1.042574784136   -1.960007493072   -0.024908127005
 N   -0.772433848010   -3.280892968040   -0.028372315952
 C    0.555695320453   -3.499086860790   -0.012804887289
 H    0.869503603423   -4.545765593280   -0.009425316598
 N    1.568044763494   -2.591105903649    0.001166382986
 C    1.255828019587   -1.280284820400   -0.003480020914
 N    2.263454974389   -0.355786183095   -0.045301857845
 H    3.194906511776   -0.686316291847    0.177156076288
 H    2.030717468362    0.604184571944    0.179508387595
 C   -0.109672821287   -0.903590966533   -0.012251108629
 N   -0.733202132478    0.335374734097   -0.002372899611
 C   -2.033127619635    0.027295345736   -0.010827752769
 H   -2.843181148422    0.753876146838   -0.006779614906
 H   -3.178490193573   -1.789974336898   -0.033466143246
RB    0.184847698768    2.334521518480    0.022053353461
