16

 N   -2.306917542203   -1.399873060097   -0.026720275233
 C   -1.074791809936   -2.030163340105   -0.025765314925
 N   -0.804650873810   -3.351048815073   -0.029229503872
 C    0.523478294653   -3.569242707823   -0.013662075209
 H    0.837286577623   -4.615921440313   -0.010282504518
 N    1.535827737694   -2.661261750682    0.000309195066
 C    1.223610993787   -1.350440667433   -0.004337208834
 N    2.231237948589   -0.425942030128   -0.046159045765
 H    3.162689485976   -0.756472138880    0.176298888368
 H    1.998500442562    0.534028724911    0.178651199675
 C   -0.141889847087   -0.973746813566   -0.013108296549
 N   -0.765419158278    0.265218887064   -0.003230087531
 C   -2.065344645435   -0.042860501297   -0.011684940689
 H   -2.875398174222    0.683720299805   -0.007636802826
 H   -3.210707219373   -1.860130183931   -0.034323331166
RB    0.236089748536    2.446106288210    0.023416734002
