16

 N   -2.419677132501   -1.645418524712   -0.029720432953
 C   -1.187551400234   -2.275708804720   -0.028765472645
 N   -0.917410464108   -3.596594279688   -0.032229661592
 C    0.410718704355   -3.814788172438   -0.016662232929
 H    0.724526987325   -4.861466904928   -0.013282662238
 N    1.423068147396   -2.906807215297   -0.002690962654
 C    1.110851403489   -1.595986132048   -0.007337366554
 N    2.118478358291   -0.671487494743   -0.049159203485
 H    3.049929895678   -1.002017603495    0.173298730648
 H    1.885740852264    0.288483260296    0.175651041955
 C   -0.254649437385   -1.219292278181   -0.016108454269
 N   -0.878178748576    0.019673422449   -0.006230245251
 C   -2.178104235733   -0.288405965912   -0.014685098409
 H   -2.988157764520    0.438174835190   -0.010636960546
 H   -3.323466809671   -2.105675648546   -0.037323488886
RB    0.415436922725    2.836652982262    0.028188565895
