16

 N   -2.484111184100   -1.785730218778   -0.031434808794
 C   -1.251985451833   -2.416020498786   -0.030479848486
 N   -0.981844515707   -3.736905973754   -0.033944037433
 C    0.346284652756   -3.955099866504   -0.018376608770
 H    0.660092935726   -5.001778598994   -0.014997038079
 N    1.358634095797   -3.047118909363   -0.004405338495
 C    1.046417351890   -1.736297826114   -0.009051742395
 N    2.054044306692   -0.811799188809   -0.050873579326
 H    2.985495844079   -1.142329297561    0.171584354807
 H    1.821306800665    0.148171566230    0.173936666114
 C   -0.319083488984   -1.359603972247   -0.017822830110
 N   -0.942612800175   -0.120638271617   -0.007944621092
 C   -2.242538287332   -0.428717659978   -0.016399474250
 H   -3.052591816119    0.297863141124   -0.012351336387
 H   -3.387900861270   -2.245987342612   -0.039037864727
RB    0.517921022262    3.059822521720    0.030915326977
