16

 N   -2.516328209900   -1.855886065811   -0.032291996714
 C   -1.284202477633   -2.486176345819   -0.031337036406
 N   -1.014061541507   -3.807061820787   -0.034801225353
 C    0.314067626956   -4.025255713537   -0.019233796690
 H    0.627875909926   -5.071934446027   -0.015854225999
 N    1.326417069997   -3.117274756396   -0.005262526415
 C    1.014200326090   -1.806453673147   -0.009908930315
 N    2.021827280892   -0.881955035842   -0.051730767246
 H    2.953278818279   -1.212485144594    0.170727166887
 H    1.789089774865    0.078015719197    0.173079478194
 C   -0.351300514784   -1.429759819280   -0.018680018030
 N   -0.974829825975   -0.190794118650   -0.008801809012
 C   -2.274755313132   -0.498873507011   -0.017256662170
 H   -3.084808841919    0.227707294091   -0.013208524307
 H   -3.420117887070   -2.316143189645   -0.039895052647
RB    0.569163072030    3.171407291449    0.032278707518
