16

 N   -2.564653748599   -1.961119836360   -0.033577778594
 C   -1.332528016332   -2.591410116368   -0.032622818286
 N   -1.062387080206   -3.912295591336   -0.036087007233
 C    0.265742088257   -4.130489484086   -0.020519578570
 H    0.579550371227   -5.177168216576   -0.017140007879
 N    1.278091531298   -3.222508526945   -0.006548308295
 C    0.965874787391   -1.911687443696   -0.011194712195
 N    1.973501742193   -0.987188806391   -0.053016549126
 H    2.904953279580   -1.317718915143    0.169441385007
 H    1.740764236166   -0.027218051352    0.171793696314
 C   -0.399626053483   -1.534993589829   -0.019965799910
 N   -1.023155364674   -0.296027889199   -0.010087590892
 C   -2.323080851831   -0.604107277560   -0.018542444050
 H   -3.133134380618    0.122473523542   -0.014494306187
 H   -3.468443425769   -2.421376960194   -0.041180834527
RB    0.646026146683    3.338784446043    0.034323778329
