16

 N   -2.629087800198   -2.101431530426   -0.035292154434
 C   -1.396962067931   -2.731721810434   -0.034337194126
 N   -1.126821131805   -4.052607285402   -0.037801383073
 C    0.201308036658   -4.270801178152   -0.022233954410
 H    0.515116319628   -5.317479910642   -0.018854383719
 N    1.213657479699   -3.362820221011   -0.008262684135
 C    0.901440735792   -2.051999137762   -0.012909088035
 N    1.909067690594   -1.127500500457   -0.054730924966
 H    2.840519227981   -1.458030609209    0.167727009167
 H    1.676330184567   -0.167529745418    0.170079320474
 C   -0.464060105082   -1.675305283895   -0.021680175750
 N   -1.087589416273   -0.436339583265   -0.011801966732
 C   -2.387514903430   -0.744418971626   -0.020256819890
 H   -3.197568432217   -0.017838170524   -0.016208682027
 H   -3.532877477368   -2.561688654260   -0.042895210367
RB    0.748510246219    3.561953985501    0.037050539411
