16

 N   -2.645196313098   -2.136509453943   -0.035720748394
 C   -1.413070580831   -2.766799733951   -0.034765788086
 N   -1.142929644705   -4.087685208919   -0.038229977033
 C    0.185199523758   -4.305879101669   -0.022662548370
 H    0.499007806728   -5.352557834159   -0.019282977679
 N    1.197548966799   -3.397898144528   -0.008691278095
 C    0.885332222892   -2.087077061279   -0.013337681995
 N    1.892959177694   -1.162578423974   -0.055159518926
 H    2.824410715081   -1.493108532726    0.167298415207
 H    1.660221671667   -0.202607668935    0.169650726514
 C   -0.480168617982   -1.710383207412   -0.022108769710
 N   -1.103697929173   -0.471417506782   -0.012230560692
 C   -2.403623416330   -0.779496895143   -0.020685413850
 H   -3.213676945117   -0.052916094041   -0.016637275987
 H   -3.548985990268   -2.596766577777   -0.043323804327
RB    0.774131271103    3.617746370366    0.037732229682
