16

 N   -2.838498467895   -2.557444536140   -0.040863875915
 C   -1.606372735628   -3.187734816148   -0.039908915607
 N   -1.336231799502   -4.508620291116   -0.043373104554
 C   -0.008102631039   -4.726814183866   -0.027805675891
 H    0.305705651931   -5.773492916356   -0.024426105200
 N    1.004246812002   -3.818833226725   -0.013834405616
 C    0.692030068095   -2.508012143476   -0.018480809516
 N    1.699657022897   -1.583513506171   -0.060302646447
 H    2.631108560284   -1.914043614923    0.162155287686
 H    1.466919516870   -0.623542751132    0.164507598993
 C   -0.673470772779   -2.131318289609   -0.027251897231
 N   -1.297000083970   -0.892352588979   -0.017373688213
 C   -2.596925571127   -1.200431977340   -0.025828541371
 H   -3.406979099914   -0.473851176238   -0.021780403508
 H   -3.742288145065   -3.017701659974   -0.048466931848
RB    1.081583569713    4.287254988740    0.045912512927
