16

 N   -2.870715493695   -2.627600383173   -0.041721063835
 C   -1.638589761428   -3.257890663181   -0.040766103527
 N   -1.368448825302   -4.578776138149   -0.044230292474
 C   -0.040319656839   -4.796970030899   -0.028662863811
 H    0.273488626131   -5.843648763389   -0.025283293120
 N    0.972029786202   -3.888989073758   -0.014691593536
 C    0.659813042295   -2.578167990509   -0.019337997436
 N    1.667439997097   -1.653669353204   -0.061159834367
 H    2.598891534484   -1.984199461956    0.161298099766
 H    1.434702491070   -0.693698598165    0.163650411073
 C   -0.705687798579   -2.201474136642   -0.028109085151
 N   -1.329217109770   -0.962508436012   -0.018230876133
 C   -2.629142596927   -1.270587824373   -0.026685729291
 H   -3.439196125714   -0.544007023271   -0.022637591428
 H   -3.774505170865   -3.087857507007   -0.049324119768
RB    1.132825619482    4.398839758470    0.047275893468
