16

 N   -2.886824006595   -2.662678306690   -0.042149657795
 C   -1.654698274328   -3.292968586698   -0.041194697487
 N   -1.384557338202   -4.613854061666   -0.044658886434
 C   -0.056428169739   -4.832047954416   -0.029091457771
 H    0.257380113231   -5.878726686906   -0.025711887080
 N    0.955921273302   -3.924066997275   -0.015120187496
 C    0.643704529395   -2.613245914026   -0.019766591396
 N    1.651331484197   -1.688747276721   -0.061588428327
 H    2.582783021584   -2.019277385473    0.160869505806
 H    1.418593978170   -0.728776521682    0.163221817113
 C   -0.721796311479   -2.236552060159   -0.028537679111
 N   -1.345325622670   -0.997586359529   -0.018659470093
 C   -2.645251109827   -1.305665747890   -0.027114323251
 H   -3.455304638614   -0.579084946788   -0.023066185388
 H   -3.790613683765   -3.122935430524   -0.049752713728
RB    1.158446644366    4.454632143334    0.047957583739
