16

 N   -2.951258058194   -2.802990000756   -0.043864033635
 C   -1.719132325927   -3.433280280764   -0.042909073327
 N   -1.448991389801   -4.754165755732   -0.046373262274
 C   -0.120862221338   -4.972359648482   -0.030805833611
 H    0.192946061632   -6.019038380972   -0.027426262920
 N    0.891487221703   -4.064378691341   -0.016834563336
 C    0.579270477796   -2.753557608092   -0.021480967236
 N    1.586897432598   -1.829058970787   -0.063302804167
 H    2.518348969985   -2.159589079539    0.159155129966
 H    1.354159926571   -0.869088215748    0.161507441273
 C   -0.786230363078   -2.376863754225   -0.030252054951
 N   -1.409759674269   -1.137898053595   -0.020373845933
 C   -2.709685161426   -1.445977441956   -0.028828699091
 H   -3.519738690213   -0.719396640854   -0.024780561228
 H   -3.855047735364   -3.263247124590   -0.051467089568
RB    1.260930743902    4.677801682792    0.050684344821
