16

 N   -2.967366571094   -2.838067924272   -0.044292627595
 C   -1.735240838827   -3.468358204280   -0.043337667287
 N   -1.465099902701   -4.789243679248   -0.046801856234
 C   -0.136970734238   -5.007437571998   -0.031234427571
 H    0.176837548732   -6.054116304488   -0.027854856880
 N    0.875378708803   -4.099456614857   -0.017263157296
 C    0.563161964896   -2.788635531608   -0.021909561196
 N    1.570788919698   -1.864136894303   -0.063731398127
 H    2.502240457085   -2.194667003055    0.158726536006
 H    1.338051413671   -0.904166139264    0.161078847313
 C   -0.802338875978   -2.411941677741   -0.030680648911
 N   -1.425868187169   -1.172975977111   -0.020802439893
 C   -2.725793674326   -1.481055365472   -0.029257293051
 H   -3.535847203113   -0.754474564370   -0.025209155188
 H   -3.871156248264   -3.298325048106   -0.051895683528
RB    1.286551768787    4.733594067657    0.051366035091
