16

 N   -2.999583596893   -2.908223771305   -0.045149815515
 C   -1.767457864626   -3.538514051313   -0.044194855207
 N   -1.497316928500   -4.859399526281   -0.047659044154
 C   -0.169187760037   -5.077593419031   -0.032091615491
 H    0.144620522933   -6.124272151521   -0.028712044800
 N    0.843161683004   -4.169612461890   -0.018120345216
 C    0.530944939097   -2.858791378641   -0.022766749116
 N    1.538571893899   -1.934292741336   -0.064588586047
 H    2.470023431286   -2.264822850088    0.157869348086
 H    1.305834387872   -0.974321986297    0.160221659393
 C   -0.834555901777   -2.482097524774   -0.031537836831
 N   -1.458085212968   -1.243131824144   -0.021659627813
 C   -2.758010700125   -1.551211212505   -0.030114480971
 H   -3.568064228912   -0.824630411403   -0.026066343108
 H   -3.903373274063   -3.368480895139   -0.052752871448
RB    1.337793818555    4.845178837386    0.052729415632
