16

 N   -3.015692109793   -2.943301694822   -0.045578409475
 C   -1.783566377526   -3.573591974830   -0.044623449167
 N   -1.513425441400   -4.894477449798   -0.048087638114
 C   -0.185296272937   -5.112671342548   -0.032520209451
 H    0.128512010033   -6.159350075038   -0.029140638760
 N    0.827053170104   -4.204690385407   -0.018548939176
 C    0.514836426197   -2.893869302158   -0.023195343076
 N    1.522463380999   -1.969370664853   -0.065017180007
 H    2.453914918386   -2.299900773605    0.157440754126
 H    1.289725874972   -1.009399909814    0.159793065433
 C   -0.850664414677   -2.517175448291   -0.031966430791
 N   -1.474193725868   -1.278209747661   -0.022088221773
 C   -2.774119213025   -1.586289136022   -0.030543074931
 H   -3.584172741812   -0.859708334920   -0.026494937068
 H   -3.919481786963   -3.403558818656   -0.053181465408
RB    1.363414843439    4.900971222251    0.053411105903
