16

 N   -3.031800622693   -2.978379618338   -0.046007003435
 C   -1.799674890426   -3.608669898346   -0.045052043127
 N   -1.529533954300   -4.929555373314   -0.048516232074
 C   -0.201404785837   -5.147749266064   -0.032948803411
 H    0.112403497133   -6.194427998554   -0.029569232720
 N    0.810944657204   -4.239768308923   -0.018977533136
 C    0.498727913297   -2.928947225674   -0.023623937036
 N    1.506354868099   -2.004448588369   -0.065445773967
 H    2.437806405486   -2.334978697121    0.157012160166
 H    1.273617362072   -1.044477833330    0.159364471473
 C   -0.866772927577   -2.552253371807   -0.032395024751
 N   -1.490302238768   -1.313287671177   -0.022516815733
 C   -2.790227725925   -1.621367059538   -0.030971668891
 H   -3.600281254712   -0.894786258436   -0.026923531028
 H   -3.935590299863   -3.438636742172   -0.053610059368
RB    1.389035868323    4.956763607115    0.054092796173
