16

 N   -3.047909135592   -3.013457541855   -0.046435597395
 C   -1.815783403325   -3.643747821863   -0.045480637087
 N   -1.545642467199   -4.964633296831   -0.048944826034
 C   -0.217513298736   -5.182827189581   -0.033377397371
 H    0.096294984234   -6.229505922071   -0.029997826680
 N    0.794836144305   -4.274846232440   -0.019406127096
 C    0.482619400398   -2.964025149191   -0.024052530996
 N    1.490246355200   -2.039526511886   -0.065874367927
 H    2.421697892587   -2.370056620638    0.156583566206
 H    1.257508849173   -1.079555756847    0.158935877513
 C   -0.882881440476   -2.587331295324   -0.032823618711
 N   -1.506410751667   -1.348365594694   -0.022945409693
 C   -2.806336238824   -1.656444983055   -0.031400262851
 H   -3.616389767611   -0.929864181953   -0.027352124988
 H   -3.951698812762   -3.473714665689   -0.054038653328
RB    1.414656893207    5.012555991980    0.054774486443
