16

 N   -3.112343187192   -3.153769235921   -0.048149973235
 C   -1.880217454925   -3.784059515929   -0.047195012927
 N   -1.610076518799   -5.104944990897   -0.050659201874
 C   -0.281947350336   -5.323138883647   -0.035091773211
 H    0.031860932634   -6.369817616137   -0.031712202520
 N    0.730402092705   -4.415157926506   -0.021120502936
 C    0.418185348798   -3.104336843257   -0.025766906836
 N    1.425812303600   -2.179838205952   -0.067588743767
 H    2.357263840987   -2.510368314704    0.154869190366
 H    1.193074797573   -1.219867450913    0.157221501673
 C   -0.947315492076   -2.727642989390   -0.034537994551
 N   -1.570844803267   -1.488677288760   -0.024659785533
 C   -2.870770290424   -1.796756677121   -0.033114638691
 H   -3.680823819211   -1.070175876019   -0.029066500828
 H   -4.016132864362   -3.614026359755   -0.055753029168
RB    1.517140992744    5.235725531438    0.057501247525
