16

 N   -3.144560212991   -3.223925082954   -0.049007161155
 C   -1.912434480724   -3.854215362962   -0.048052200847
 N   -1.642293544598   -5.175100837930   -0.051516389794
 C   -0.314164376135   -5.393294730680   -0.035948961131
 H   -0.000356093165   -6.439973463170   -0.032569390440
 N    0.698185066906   -4.485313773539   -0.021977690856
 C    0.385968322999   -3.174492690290   -0.026624094756
 N    1.393595277801   -2.249994052985   -0.068445931687
 H    2.325046815188   -2.580524161737    0.154012002446
 H    1.160857771774   -1.290023297946    0.156364313753
 C   -0.979532517875   -2.797798836423   -0.035395182471
 N   -1.603061829066   -1.558833135793   -0.025516973453
 C   -2.902987316223   -1.866912524154   -0.033971826611
 H   -3.713040845010   -1.140331723052   -0.029923688748
 H   -4.048349890161   -3.684182206788   -0.056610217088
RB    1.568383042512    5.347310301167    0.058864628066
