16

 N   -3.160668725891   -3.259003006470   -0.049435755116
 C   -1.928542993624   -3.889293286478   -0.048480794808
 N   -1.658402057498   -5.210178761446   -0.051944983755
 C   -0.330272889035   -5.428372654196   -0.036377555092
 H   -0.016464606065   -6.475051386686   -0.032997984401
 N    0.682076554006   -4.520391697055   -0.022406284817
 C    0.369859810099   -3.209570613806   -0.027052688717
 N    1.377486764901   -2.285071976501   -0.068874525648
 H    2.308938302288   -2.615602085253    0.153583408485
 H    1.144749258874   -1.325101221462    0.155935719792
 C   -0.995641030775   -2.832876759939   -0.035823776432
 N   -1.619170341966   -1.593911059309   -0.025945567414
 C   -2.919095829123   -1.901990447670   -0.034400420572
 H   -3.729149357910   -1.175409646568   -0.030352282709
 H   -4.064458403061   -3.719260130304   -0.057038811049
RB    1.594004067396    5.403102686032    0.059546318337
