16

 N   -3.337862367788   -3.644860165151   -0.054150288676
 C   -2.105736635521   -4.275150445159   -0.053195328368
 N   -1.835595699395   -5.596035920127   -0.056659517315
 C   -0.507466530932   -5.814229812877   -0.041092088652
 H   -0.193658247962   -6.860908545367   -0.037712517961
 N    0.504882912109   -4.906248855736   -0.027120818377
 C    0.192666168202   -3.595427772487   -0.031767222277
 N    1.200293123004   -2.670929135182   -0.073589059208
 H    2.131744660391   -3.001459243934    0.148868874925
 H    0.967555616977   -1.710958380143    0.151221186232
 C   -1.172834672672   -3.218733918620   -0.040538309992
 N   -1.796363983863   -1.979768217990   -0.030660100974
 C   -3.096289471020   -2.287847606351   -0.039114954132
 H   -3.906342999807   -1.561266805249   -0.035066816269
 H   -4.241652044958   -4.105117288985   -0.061753344609
RB    1.875835341122    6.016818919542    0.067044911312
