16

 N   -3.386187906488   -3.750093935701   -0.055436070556
 C   -2.154062174221   -4.380384215709   -0.054481110248
 N   -1.883921238095   -5.701269690677   -0.057945299195
 C   -0.555792069632   -5.919463583427   -0.042377870532
 H   -0.241983786662   -6.966142315917   -0.038998299841
 N    0.456557373409   -5.011482626286   -0.028406600257
 C    0.144340629502   -3.700661543037   -0.033053004157
 N    1.151967584304   -2.776162905732   -0.074874841088
 H    2.083419121691   -3.106693014484    0.147583093045
 H    0.919230078277   -1.816192150693    0.149935404352
 C   -1.221160211372   -3.323967689170   -0.041824091872
 N   -1.844689522563   -2.085001988540   -0.031945882854
 C   -3.144615009720   -2.393081376901   -0.040400736012
 H   -3.954668538507   -1.666500575799   -0.036352598149
 H   -4.289977583658   -4.210351059535   -0.063039126489
RB    1.952698415774    6.184196074136    0.069089982123
