16

 N   -3.434513445187   -3.855327706250   -0.056721852436
 C   -2.202387712920   -4.485617986258   -0.055766892128
 N   -1.932246776794   -5.806503461226   -0.059231081075
 C   -0.604117608331   -6.024697353976   -0.043663652412
 H   -0.290309325361   -7.071376086466   -0.040284081721
 N    0.408231834710   -5.116716396835   -0.029692382137
 C    0.096015090803   -3.805895313586   -0.034338786037
 N    1.103642045605   -2.881396676281   -0.076160622968
 H    2.035093582992   -3.211926785033    0.146297311165
 H    0.870904539578   -1.921425921242    0.148649622472
 C   -1.269485750071   -3.429201459719   -0.043109873752
 N   -1.893015061262   -2.190235759089   -0.033231664734
 C   -3.192940548419   -2.498315147450   -0.041686517892
 H   -4.002994077206   -1.771734346348   -0.037638380029
 H   -4.338303122357   -4.315584830084   -0.064324908369
RB    2.029561490427    6.351573228730    0.071135052935
