16

 N   -3.482838983886   -3.960561476800   -0.058007634317
 C   -2.250713251619   -4.590851756808   -0.057052674009
 N   -1.980572315493   -5.911737231776   -0.060516862956
 C   -0.652443147030   -6.129931124526   -0.044949434293
 H   -0.338634864060   -7.176609857016   -0.041569863602
 N    0.359906296011   -5.221950167385   -0.030978164018
 C    0.047689552104   -3.911129084136   -0.035624567918
 N    1.055316506906   -2.986630446831   -0.077446404849
 H    1.986768044293   -3.317160555583    0.145011529284
 H    0.822579000879   -2.026659691792    0.147363840591
 C   -1.317811288770   -3.534435230269   -0.044395655633
 N   -1.941340599961   -2.295469529639   -0.034517446615
 C   -3.241266087118   -2.603548918000   -0.042972299773
 H   -4.051319615905   -1.876968116898   -0.038924161910
 H   -4.386628661056   -4.420818600634   -0.065610690250
RB    2.106424565079    6.518950383323    0.073180123746
