26

 C   -5.607167990393   -0.091352555727    0.000000000000
 H   -6.699417990393   -0.108202555727    0.000000000000
 C   -4.909837990393    1.130397444273    0.000000000000
 H   -5.462827990393    2.074397444273    0.000000000000
 C   -4.872557990393   -1.291042555727    0.000000000000
 H   -5.396257990393   -2.251612555727    0.000000000000
 C   -3.504857990393    1.153387444273    0.000000000000
 H   -2.967707990393    2.107557444273    0.000000000000
 C   -3.467537990393   -1.270892555727    0.000000000000
 H   -2.901407990393   -2.207992555727    0.000000000000
 C   -2.743487990393   -0.047342555727    0.000000000000
 O   -1.407067990393   -0.026652555727    0.000000000000
NA    0.138722009607    0.002627444273    1.503390000000
NA    0.138722009607    0.002627444273   -1.503390000000
 O    1.338506793108    0.025353492741    0.000000000000
 C    2.674926677143    0.046041410844    0.000000000000
 C    3.398975795378    1.269589148892    0.000000000000
 H    2.832839620595    2.206693442555    0.000000000000
 C    4.804001236150    1.289744537388    0.000000000000
 H    5.327691032264    2.250314368241    0.000000000000
 C    5.538604951042    0.090058463881    0.000000000000
 H    6.630854949363    0.106910928583    0.000000000000
 C    4.841278623896   -1.131695012058    0.000000000000
 H    5.394267758935   -2.075701589910    0.000000000000
 C    3.436306686947   -1.154683748121    0.000000000000
 H    2.899153284080   -2.108857433668    0.000000000000
