26

 C   -5.647253450071   -0.092111845320    0.000000000000
 H   -6.739503450071   -0.108961845320    0.000000000000
 C   -4.949923450071    1.129638154680    0.000000000000
 H   -5.502913450071    2.073638154680    0.000000000000
 C   -4.912643450071   -1.291801845320    0.000000000000
 H   -5.436343450071   -2.252371845320    0.000000000000
 C   -3.544943450071    1.152628154680    0.000000000000
 H   -3.007793450071    2.106798154680    0.000000000000
 C   -3.507623450071   -1.271651845320    0.000000000000
 H   -2.941493450071   -2.208751845320    0.000000000000
 C   -2.783573450071   -0.048101845320    0.000000000000
 O   -1.447153450071   -0.027411845320    0.000000000000
NA    0.098636549929    0.001868154680    1.503390000000
NA    0.098636549929    0.001868154680   -1.503390000000
 O    1.398403398722    0.026488040520    0.000000000000
 C    2.734823282757    0.047175958623    0.000000000000
 C    3.458872400992    1.270723696671    0.000000000000
 H    2.892736226209    2.207827990335    0.000000000000
 C    4.863897841763    1.290879085168    0.000000000000
 H    5.387587637878    2.251448916021    0.000000000000
 C    5.598501556656    0.091193011661    0.000000000000
 H    6.690751554977    0.108045476363    0.000000000000
 C    4.901175229509   -1.130560464278    0.000000000000
 H    5.454164364549   -2.074567042130    0.000000000000
 C    3.496203292560   -1.153549200341    0.000000000000
 H    2.959049889694   -2.107722885888    0.000000000000
