26

 C   -5.687338909749   -0.092871134912    0.000000000000
 H   -6.779588909749   -0.109721134912    0.000000000000
 C   -4.990008909749    1.128878865088    0.000000000000
 H   -5.542998909749    2.072878865088    0.000000000000
 C   -4.952728909749   -1.292561134912    0.000000000000
 H   -5.476428909749   -2.253131134912    0.000000000000
 C   -3.585028909749    1.151868865088    0.000000000000
 H   -3.047878909749    2.106038865088    0.000000000000
 C   -3.547708909749   -1.272411134912    0.000000000000
 H   -2.981578909749   -2.209511134912    0.000000000000
 C   -2.823658909749   -0.048861134912    0.000000000000
 O   -1.487238909749   -0.028171134912    0.000000000000
NA    0.058551090251    0.001108865088    1.503390000000
NA    0.058551090251    0.001108865088   -1.503390000000
 O    1.458300004336    0.027622588300    0.000000000000
 C    2.794719888371    0.048310506403    0.000000000000
 C    3.518769006606    1.271858244451    0.000000000000
 H    2.952632831823    2.208962538114    0.000000000000
 C    4.923794447377    1.292013632948    0.000000000000
 H    5.447484243492    2.252583463801    0.000000000000
 C    5.658398162270    0.092327559441    0.000000000000
 H    6.750648160591    0.109180024142    0.000000000000
 C    4.961071835123   -1.129425916498    0.000000000000
 H    5.514060970163   -2.073432494351    0.000000000000
 C    3.556099898174   -1.152414652562    0.000000000000
 H    3.018946495308   -2.106588338108    0.000000000000
