26

 C   -5.727424369427   -0.093630424505    0.000000000000
 H   -6.819674369427   -0.110480424505    0.000000000000
 C   -5.030094369427    1.128119575495    0.000000000000
 H   -5.583084369427    2.072119575495    0.000000000000
 C   -4.992814369427   -1.293320424505    0.000000000000
 H   -5.516514369427   -2.253890424505    0.000000000000
 C   -3.625114369427    1.151109575495    0.000000000000
 H   -3.087964369427    2.105279575495    0.000000000000
 C   -3.587794369427   -1.273170424505    0.000000000000
 H   -3.021664369427   -2.210270424505    0.000000000000
 C   -2.863744369427   -0.049620424505    0.000000000000
 O   -1.527324369427   -0.028930424505    0.000000000000
NA    0.018465630573    0.000349575495    1.503390000000
NA    0.018465630573    0.000349575495   -1.503390000000
 O    1.518196609949    0.028757136080    0.000000000000
 C    2.854616493985    0.049445054183    0.000000000000
 C    3.578665612220    1.272992792231    0.000000000000
 H    3.012529437437    2.210097085894    0.000000000000
 C    4.983691052991    1.293148180727    0.000000000000
 H    5.507380849106    2.253718011581    0.000000000000
 C    5.718294767883    0.093462107220    0.000000000000
 H    6.810544766205    0.110314571922    0.000000000000
 C    5.020968440737   -1.128291368719    0.000000000000
 H    5.573957575777   -2.072297946571    0.000000000000
 C    3.615996503788   -1.151280104782    0.000000000000
 H    3.078843100922   -2.105453790329    0.000000000000
