26

 C   -5.927851667816   -0.097426872468    0.000000000000
 H   -7.020101667816   -0.114276872468    0.000000000000
 C   -5.230521667816    1.124323127532    0.000000000000
 H   -5.783511667816    2.068323127532    0.000000000000
 C   -5.193241667816   -1.297116872468    0.000000000000
 H   -5.716941667816   -2.257686872468    0.000000000000
 C   -3.825541667816    1.147313127532    0.000000000000
 H   -3.288391667816    2.101483127532    0.000000000000
 C   -3.788221667816   -1.276966872468    0.000000000000
 H   -3.222091667816   -2.214066872468    0.000000000000
 C   -3.064171667816   -0.053416872468    0.000000000000
 O   -1.727751667816   -0.032726872468    0.000000000000
NA   -0.181961667816   -0.003446872468    1.503390000000
NA   -0.181961667816   -0.003446872468   -1.503390000000
 O    1.817679638019    0.034429874978    0.000000000000
 C    3.154099522054    0.055117793081    0.000000000000
 C    3.878148640289    1.278665531129    0.000000000000
 H    3.312012465507    2.215769824792    0.000000000000
 C    5.283174081061    1.298820919626    0.000000000000
 H    5.806863877176    2.259390750479    0.000000000000
 C    6.017777795953    0.099134846119    0.000000000000
 H    7.110027794274    0.115987310821    0.000000000000
 C    5.320451468807   -1.122618629820    0.000000000000
 H    5.873440603846   -2.066625207672    0.000000000000
 C    3.915479531858   -1.145607365884    0.000000000000
 H    3.378326128992   -2.099781051430    0.000000000000
