26

 C   -6.008022587172   -0.098945451653    0.000000000000
 H   -7.100272587172   -0.115795451653    0.000000000000
 C   -5.310692587172    1.122804548347    0.000000000000
 H   -5.863682587172    2.066804548347    0.000000000000
 C   -5.273412587172   -1.298635451653    0.000000000000
 H   -5.797112587172   -2.259205451653    0.000000000000
 C   -3.905712587172    1.145794548347    0.000000000000
 H   -3.368562587172    2.099964548347    0.000000000000
 C   -3.868392587172   -1.278485451653    0.000000000000
 H   -3.302262587172   -2.215585451653    0.000000000000
 C   -3.144342587172   -0.054935451653    0.000000000000
 O   -1.807922587172   -0.034245451653    0.000000000000
NA   -0.262132587172   -0.004965451653    1.503390000000
NA   -0.262132587172   -0.004965451653   -1.503390000000
 O    1.937472849247    0.036698970537    0.000000000000
 C    3.273892733282    0.057386888640    0.000000000000
 C    3.997941851517    1.280934626689    0.000000000000
 H    3.431805676734    2.218038920352    0.000000000000
 C    5.402967292289    1.301090015185    0.000000000000
 H    5.926657088403    2.261659846038    0.000000000000
 C    6.137571007181    0.101403941678    0.000000000000
 H    7.229821005502    0.118256406380    0.000000000000
 C    5.440244680035   -1.120349534261    0.000000000000
 H    5.993233815074   -2.064356112113    0.000000000000
 C    4.035272743086   -1.143338270324    0.000000000000
 H    3.498119340219   -2.097511955871    0.000000000000
