26

 C   -6.248535345239   -0.103501189209    0.000000000000
 H   -7.340785345239   -0.120351189209    0.000000000000
 C   -5.551205345239    1.118248810791    0.000000000000
 H   -6.104195345239    2.062248810791    0.000000000000
 C   -5.513925345239   -1.303191189209    0.000000000000
 H   -6.037625345239   -2.263761189209    0.000000000000
 C   -4.146225345239    1.141238810791    0.000000000000
 H   -3.609075345239    2.095408810791    0.000000000000
 C   -4.108905345239   -1.283041189209    0.000000000000
 H   -3.542775345239   -2.220141189209    0.000000000000
 C   -3.384855345239   -0.059491189209    0.000000000000
 O   -2.048435345239   -0.038801189209    0.000000000000
NA   -0.502645345239   -0.009521189209    1.503390000000
NA   -0.502645345239   -0.009521189209   -1.503390000000
 O    2.296852482930    0.043506257216    0.000000000000
 C    3.633272366965    0.064194175319    0.000000000000
 C    4.357321485201    1.287741913367    0.000000000000
 H    3.791185310418    2.224846207030    0.000000000000
 C    5.762346925972    1.307897301863    0.000000000000
 H    6.286036722087    2.268467132717    0.000000000000
 C    6.496950640864    0.108211228356    0.000000000000
 H    7.589200639186    0.125063693058    0.000000000000
 C    5.799624313718   -1.113542247583    0.000000000000
 H    6.352613448757   -2.057548825435    0.000000000000
 C    4.394652376769   -1.136530983646    0.000000000000
 H    3.857498973903   -2.090704669192    0.000000000000
