26

 C   -6.408877183951   -0.106538347580    0.000000000000
 H   -7.501127183951   -0.123388347580    0.000000000000
 C   -5.711547183951    1.115211652420    0.000000000000
 H   -6.264537183951    2.059211652420    0.000000000000
 C   -5.674267183951   -1.306228347580    0.000000000000
 H   -6.197967183951   -2.266798347580    0.000000000000
 C   -4.306567183951    1.138201652420    0.000000000000
 H   -3.769417183951    2.092371652420    0.000000000000
 C   -4.269247183951   -1.286078347580    0.000000000000
 H   -3.703117183951   -2.223178347580    0.000000000000
 C   -3.545197183951   -0.062528347580    0.000000000000
 O   -2.208777183951   -0.041838347580    0.000000000000
NA   -0.662987183951   -0.012558347580    1.503390000000
NA   -0.662987183951   -0.012558347580   -1.503390000000
 O    2.536438905386    0.048044448334    0.000000000000
 C    3.872858789421    0.068732366437    0.000000000000
 C    4.596907907656    1.292280104486    0.000000000000
 H    4.030771732873    2.229384398149    0.000000000000
 C    6.001933348428    1.312435492982    0.000000000000
 H    6.525623144542    2.273005323835    0.000000000000
 C    6.736537063320    0.112749419475    0.000000000000
 H    7.828787061641    0.129601884177    0.000000000000
 C    6.039210736174   -1.109004056464    0.000000000000
 H    6.592199871213   -2.053010634316    0.000000000000
 C    4.634238799225   -1.131992792527    0.000000000000
 H    4.097085396358   -2.086166478074    0.000000000000
