26

 C   -6.448962643629   -0.107297637172    0.000000000000
 H   -7.541212643629   -0.124147637172    0.000000000000
 C   -5.751632643629    1.114452362828    0.000000000000
 H   -6.304622643629    2.058452362828    0.000000000000
 C   -5.714352643629   -1.306987637172    0.000000000000
 H   -6.238052643629   -2.267557637172    0.000000000000
 C   -4.346652643629    1.137442362828    0.000000000000
 H   -3.809502643629    2.091612362828    0.000000000000
 C   -4.309332643629   -1.286837637172    0.000000000000
 H   -3.743202643629   -2.223937637172    0.000000000000
 C   -3.585282643629   -0.063287637172    0.000000000000
 O   -2.248862643629   -0.042597637172    0.000000000000
NA   -0.703072643629   -0.013317637172    1.503390000000
NA   -0.703072643629   -0.013317637172   -1.503390000000
 O    2.596335511000    0.049178996114    0.000000000000
 C    3.932755395035    0.069866914217    0.000000000000
 C    4.656804513270    1.293414652265    0.000000000000
 H    4.090668338487    2.230518945929    0.000000000000
 C    6.061829954041    1.313570040762    0.000000000000
 H    6.585519750156    2.274139871615    0.000000000000
 C    6.796433668934    0.113883967255    0.000000000000
 H    7.888683667255    0.130736431957    0.000000000000
 C    6.099107341787   -1.107869508684    0.000000000000
 H    6.652096476827   -2.051876086536    0.000000000000
 C    4.694135404838   -1.130858244748    0.000000000000
 H    4.156982001972   -2.085031930294    0.000000000000
