26

 C   -6.649389942018   -0.111094085135    0.000000000000
 H   -7.741639942018   -0.127944085135    0.000000000000
 C   -5.952059942018    1.110655914865    0.000000000000
 H   -6.505049942018    2.054655914865    0.000000000000
 C   -5.914779942018   -1.310784085135    0.000000000000
 H   -6.438479942018   -2.271354085135    0.000000000000
 C   -4.547079942018    1.133645914865    0.000000000000
 H   -4.009929942018    2.087815914865    0.000000000000
 C   -4.509759942018   -1.290634085135    0.000000000000
 H   -3.943629942018   -2.227734085135    0.000000000000
 C   -3.785709942018   -0.067084085135    0.000000000000
 O   -2.449289942018   -0.046394085135    0.000000000000
NA   -0.903499942018   -0.017114085135    1.503390000000
NA   -0.903499942018   -0.017114085135   -1.503390000000
 O    2.895818539069    0.054851735013    0.000000000000
 C    4.232238423104    0.075539653116    0.000000000000
 C    4.956287541340    1.299087391164    0.000000000000
 H    4.390151366557    2.236191684827    0.000000000000
 C    6.361312982111    1.319242779660    0.000000000000
 H    6.885002778226    2.279812610514    0.000000000000
 C    7.095916697003    0.119556706153    0.000000000000
 H    8.188166695325    0.136409170855    0.000000000000
 C    6.398590369857   -1.102196769786    0.000000000000
 H    6.951579504896   -2.046203347638    0.000000000000
 C    4.993618432908   -1.125185505849    0.000000000000
 H    4.456465030042   -2.079359191396    0.000000000000
