26

 C   -6.689475401696   -0.111853374728    0.000000000000
 H   -7.781725401696   -0.128703374728    0.000000000000
 C   -5.992145401696    1.109896625272    0.000000000000
 H   -6.545135401696    2.053896625272    0.000000000000
 C   -5.954865401696   -1.311543374728    0.000000000000
 H   -6.478565401696   -2.272113374728    0.000000000000
 C   -4.587165401696    1.132886625272    0.000000000000
 H   -4.050015401696    2.087056625272    0.000000000000
 C   -4.549845401696   -1.291393374728    0.000000000000
 H   -3.983715401696   -2.228493374728    0.000000000000
 C   -3.825795401696   -0.067843374728    0.000000000000
 O   -2.489375401696   -0.047153374728    0.000000000000
NA   -0.943585401696   -0.017873374728    1.503390000000
NA   -0.943585401696   -0.017873374728   -1.503390000000
 O    2.955715144683    0.055986282792    0.000000000000
 C    4.292135028718    0.076674200895    0.000000000000
 C    5.016184146954    1.300221938943    0.000000000000
 H    4.450047972171    2.237326232607    0.000000000000
 C    6.421209587725    1.320377327440    0.000000000000
 H    6.944899383840    2.280947158293    0.000000000000
 C    7.155813302617    0.120691253933    0.000000000000
 H    8.248063300939    0.137543718635    0.000000000000
 C    6.458486975471   -1.101062222006    0.000000000000
 H    7.011476110510   -2.045068799858    0.000000000000
 C    5.053515038522   -1.124050958069    0.000000000000
 H    4.516361635656   -2.078224643616    0.000000000000
