26

 C   -6.809731780730   -0.114131243506    0.000000000000
 H   -7.901981780730   -0.130981243506    0.000000000000
 C   -6.112401780730    1.107618756494    0.000000000000
 H   -6.665391780730    2.051618756494    0.000000000000
 C   -6.075121780730   -1.313821243506    0.000000000000
 H   -6.598821780730   -2.274391243506    0.000000000000
 C   -4.707421780730    1.130608756494    0.000000000000
 H   -4.170271780730    2.084778756494    0.000000000000
 C   -4.670101780730   -1.293671243506    0.000000000000
 H   -4.103971780730   -2.230771243506    0.000000000000
 C   -3.946051780730   -0.070121243506    0.000000000000
 O   -2.609631780730   -0.049431243506    0.000000000000
NA   -1.063841780730   -0.020151243506    1.503390000000
NA   -1.063841780730   -0.020151243506   -1.503390000000
 O    3.135404961525    0.059389926131    0.000000000000
 C    4.471824845560    0.080077844234    0.000000000000
 C    5.195873963795    1.303625582282    0.000000000000
 H    4.629737789012    2.240729875946    0.000000000000
 C    6.600899404567    1.323780970779    0.000000000000
 H    7.124589200681    2.284350801632    0.000000000000
 C    7.335503119459    0.124094897272    0.000000000000
 H    8.427753117780    0.140947361974    0.000000000000
 C    6.638176792313   -1.097658578667    0.000000000000
 H    7.191165927352   -2.041665156519    0.000000000000
 C    5.233204855364   -1.120647314730    0.000000000000
 H    4.696051452497   -2.074821000277    0.000000000000
