26

 C   -6.929988159763   -0.116409112283    0.000000000000
 H   -8.022238159763   -0.133259112283    0.000000000000
 C   -6.232658159763    1.105340887717    0.000000000000
 H   -6.785648159763    2.049340887717    0.000000000000
 C   -6.195378159763   -1.316099112283    0.000000000000
 H   -6.719078159763   -2.276669112283    0.000000000000
 C   -4.827678159763    1.128330887717    0.000000000000
 H   -4.290528159763    2.082500887717    0.000000000000
 C   -4.790358159763   -1.295949112283    0.000000000000
 H   -4.224228159763   -2.233049112283    0.000000000000
 C   -4.066308159763   -0.072399112283    0.000000000000
 O   -2.729888159763   -0.051709112283    0.000000000000
NA   -1.184098159763   -0.022429112283    1.503390000000
NA   -1.184098159763   -0.022429112283   -1.503390000000
 O    3.315094778366    0.062793569470    0.000000000000
 C    4.651514662402    0.083481487573    0.000000000000
 C    5.375563780637    1.307029225622    0.000000000000
 H    4.809427605854    2.244133519285    0.000000000000
 C    6.780589221408    1.327184614118    0.000000000000
 H    7.304279017523    2.287754444971    0.000000000000
 C    7.515192936300    0.127498540611    0.000000000000
 H    8.607442934622    0.144351005313    0.000000000000
 C    6.817866609154   -1.094254935328    0.000000000000
 H    7.370855744194   -2.038261513180    0.000000000000
 C    5.412894672205   -1.117243671391    0.000000000000
 H    4.875741269339   -2.071417356938    0.000000000000
