26

 C   -7.090329998475   -0.119446270654    0.000000000000
 H   -8.182579998475   -0.136296270654    0.000000000000
 C   -6.392999998475    1.102303729346    0.000000000000
 H   -6.945989998475    2.046303729346    0.000000000000
 C   -6.355719998475   -1.319136270654    0.000000000000
 H   -6.879419998475   -2.279706270654    0.000000000000
 C   -4.988019998475    1.125293729346    0.000000000000
 H   -4.450869998475    2.079463729346    0.000000000000
 C   -4.950699998475   -1.298986270654    0.000000000000
 H   -4.384569998475   -2.236086270654    0.000000000000
 C   -4.226649998475   -0.075436270654    0.000000000000
 O   -2.890229998475   -0.054746270654    0.000000000000
NA   -1.344439998475   -0.025466270654    1.503390000000
NA   -1.344439998475   -0.025466270654   -1.503390000000
 O    3.554681200822    0.067331760589    0.000000000000
 C    4.891101084857    0.088019678692    0.000000000000
 C    5.615150203093    1.311567416740    0.000000000000
 H    5.049014028310    2.248671710404    0.000000000000
 C    7.020175643864    1.331722805237    0.000000000000
 H    7.543865439979    2.292292636090    0.000000000000
 C    7.754779358756    0.132036731730    0.000000000000
 H    8.847029357078    0.148889196432    0.000000000000
 C    7.057453031610   -1.089716744209    0.000000000000
 H    7.610442166649   -2.033723322061    0.000000000000
 C    5.652481094661   -1.112705480272    0.000000000000
 H    5.115327691795   -2.066879165819    0.000000000000
