26

 C   -7.130415458152   -0.120205560247    0.000000000000
 H   -8.222665458152   -0.137055560247    0.000000000000
 C   -6.433085458152    1.101544439753    0.000000000000
 H   -6.986075458152    2.045544439753    0.000000000000
 C   -6.395805458152   -1.319895560247    0.000000000000
 H   -6.919505458152   -2.280465560247    0.000000000000
 C   -5.028105458152    1.124534439753    0.000000000000
 H   -4.490955458152    2.078704439753    0.000000000000
 C   -4.990785458152   -1.299745560247    0.000000000000
 H   -4.424655458152   -2.236845560247    0.000000000000
 C   -4.266735458152   -0.076195560247    0.000000000000
 O   -2.930315458152   -0.055505560247    0.000000000000
NA   -1.384525458152   -0.026225560247    1.503390000000
NA   -1.384525458152   -0.026225560247   -1.503390000000
 O    3.614577806436    0.068466308369    0.000000000000
 C    4.950997690471    0.089154226472    0.000000000000
 C    5.675046808706    1.312701964520    0.000000000000
 H    5.108910633923    2.249806258183    0.000000000000
 C    7.080072249478    1.332857353017    0.000000000000
 H    7.603762045592    2.293427183870    0.000000000000
 C    7.814675964370    0.133171279510    0.000000000000
 H    8.906925962691    0.150023744211    0.000000000000
 C    7.117349637224   -1.088582196429    0.000000000000
 H    7.670338772263   -2.032588774282    0.000000000000
 C    5.712377700275   -1.111570932493    0.000000000000
 H    5.175224297409   -2.065744618039    0.000000000000
