26

 C   -7.290757296864   -0.123242718617    0.000000000000
 H   -8.383007296864   -0.140092718617    0.000000000000
 C   -6.593427296864    1.098507281383    0.000000000000
 H   -7.146417296864    2.042507281383    0.000000000000
 C   -6.556147296864   -1.322932718617    0.000000000000
 H   -7.079847296864   -2.283502718617    0.000000000000
 C   -5.188447296864    1.121497281383    0.000000000000
 H   -4.651297296864    2.075667281383    0.000000000000
 C   -5.151127296864   -1.302782718617    0.000000000000
 H   -4.584997296864   -2.239882718617    0.000000000000
 C   -4.427077296864   -0.079232718617    0.000000000000
 O   -3.090657296864   -0.058542718617    0.000000000000
NA   -1.544867296864   -0.029262718617    1.503390000000
NA   -1.544867296864   -0.029262718617   -1.503390000000
 O    3.854164228891    0.073004499488    0.000000000000
 C    5.190584112927    0.093692417591    0.000000000000
 C    5.914633231162    1.317240155639    0.000000000000
 H    5.348497056379    2.254344449302    0.000000000000
 C    7.319658671933    1.337395544135    0.000000000000
 H    7.843348468048    2.297965374989    0.000000000000
 C    8.054262386825    0.137709470628    0.000000000000
 H    9.146512385147    0.154561935330    0.000000000000
 C    7.356936059679   -1.084044005310    0.000000000000
 H    7.909925194719   -2.028050583163    0.000000000000
 C    5.951964122730   -1.107032741374    0.000000000000
 H    5.414810719864   -2.061206426920    0.000000000000
