26

 C   -7.330842756542   -0.124002008210    0.000000000000
 H   -8.423092756542   -0.140852008210    0.000000000000
 C   -6.633512756542    1.097747991790    0.000000000000
 H   -7.186502756542    2.041747991790    0.000000000000
 C   -6.596232756542   -1.323692008210    0.000000000000
 H   -7.119932756542   -2.284262008210    0.000000000000
 C   -5.228532756542    1.120737991790    0.000000000000
 H   -4.691382756542    2.074907991790    0.000000000000
 C   -5.191212756542   -1.303542008210    0.000000000000
 H   -4.625082756542   -2.240642008210    0.000000000000
 C   -4.467162756542   -0.079992008210    0.000000000000
 O   -3.130742756542   -0.059302008210    0.000000000000
NA   -1.584952756542   -0.030022008210    1.503390000000
NA   -1.584952756542   -0.030022008210   -1.503390000000
 O    3.914060834505    0.074139047267    0.000000000000
 C    5.250480718541    0.094826965370    0.000000000000
 C    5.974529836776    1.318374703419    0.000000000000
 H    5.408393661993    2.255478997082    0.000000000000
 C    7.379555277547    1.338530091915    0.000000000000
 H    7.903245073662    2.299099922768    0.000000000000
 C    8.114158992439    0.138844018408    0.000000000000
 H    9.206408990761    0.155696483110    0.000000000000
 C    7.416832665293   -1.082909457531    0.000000000000
 H    7.969821800333   -2.026916035383    0.000000000000
 C    6.011860728344   -1.105898193594    0.000000000000
 H    5.474707325478   -2.060071879141    0.000000000000
