26

 C   -7.370928216220   -0.124761297802    0.000000000000
 H   -8.463178216220   -0.141611297802    0.000000000000
 C   -6.673598216220    1.096988702198    0.000000000000
 H   -7.226588216220    2.040988702198    0.000000000000
 C   -6.636318216220   -1.324451297802    0.000000000000
 H   -7.160018216220   -2.285021297802    0.000000000000
 C   -5.268618216220    1.119978702198    0.000000000000
 H   -4.731468216220    2.074148702198    0.000000000000
 C   -5.231298216220   -1.304301297802    0.000000000000
 H   -4.665168216220   -2.241401297802    0.000000000000
 C   -4.507248216220   -0.080751297802    0.000000000000
 O   -3.170828216220   -0.060061297802    0.000000000000
NA   -1.625038216220   -0.030781297802    1.503390000000
NA   -1.625038216220   -0.030781297802   -1.503390000000
 O    3.973957440119    0.075273595047    0.000000000000
 C    5.310377324154    0.095961513150    0.000000000000
 C    6.034426442390    1.319509251198    0.000000000000
 H    5.468290267607    2.256613544862    0.000000000000
 C    7.439451883161    1.339664639695    0.000000000000
 H    7.963141679276    2.300234470548    0.000000000000
 C    8.174055598053    0.139978566188    0.000000000000
 H    9.266305596375    0.156831030890    0.000000000000
 C    7.476729270907   -1.081774909751    0.000000000000
 H    8.029718405946   -2.025781487603    0.000000000000
 C    6.071757333958   -1.104763645815    0.000000000000
 H    5.534603931092   -2.058937331361    0.000000000000
