26

 C   -7.411013675898   -0.125520587395    0.000000000000
 H   -8.503263675898   -0.142370587395    0.000000000000
 C   -6.713683675898    1.096229412605    0.000000000000
 H   -7.266673675898    2.040229412605    0.000000000000
 C   -6.676403675898   -1.325210587395    0.000000000000
 H   -7.200103675898   -2.285780587395    0.000000000000
 C   -5.308703675898    1.119219412605    0.000000000000
 H   -4.771553675898    2.073389412605    0.000000000000
 C   -5.271383675898   -1.305060587395    0.000000000000
 H   -4.705253675898   -2.242160587395    0.000000000000
 C   -4.547333675898   -0.081510587395    0.000000000000
 O   -3.210913675898   -0.060820587395    0.000000000000
NA   -1.665123675898   -0.031540587395    1.503390000000
NA   -1.665123675898   -0.031540587395   -1.503390000000
 O    4.033854045733    0.076408142827    0.000000000000
 C    5.370273929768    0.097096060930    0.000000000000
 C    6.094323048004    1.320643798978    0.000000000000
 H    5.528186873221    2.257748092641    0.000000000000
 C    7.499348488775    1.340799187475    0.000000000000
 H    8.023038284890    2.301369018328    0.000000000000
 C    8.233952203667    0.141113113968    0.000000000000
 H    9.326202201989    0.157965578669    0.000000000000
 C    7.536625876521   -1.080640361971    0.000000000000
 H    8.089615011560   -2.024646939824    0.000000000000
 C    6.131653939572   -1.103629098035    0.000000000000
 H    5.594500536706   -2.057802783581    0.000000000000
