26

 C   -7.491184595253   -0.127039166580    0.000000000000
 H   -8.583434595253   -0.143889166580    0.000000000000
 C   -6.793854595253    1.094710833420    0.000000000000
 H   -7.346844595253    2.038710833420    0.000000000000
 C   -6.756574595253   -1.326729166580    0.000000000000
 H   -7.280274595253   -2.287299166580    0.000000000000
 C   -5.388874595253    1.117700833420    0.000000000000
 H   -4.851724595253    2.071870833420    0.000000000000
 C   -5.351554595253   -1.306579166580    0.000000000000
 H   -4.785424595253   -2.243679166580    0.000000000000
 C   -4.627504595253   -0.083029166580    0.000000000000
 O   -3.291084595253   -0.062339166580    0.000000000000
NA   -1.745294595253   -0.033059166580    1.503390000000
NA   -1.745294595253   -0.033059166580   -1.503390000000
 O    4.153647256961    0.078677238386    0.000000000000
 C    5.490067140996    0.099365156489    0.000000000000
 C    6.214116259231    1.322912894537    0.000000000000
 H    5.647980084449    2.260017188201    0.000000000000
 C    7.619141700003    1.343068283034    0.000000000000
 H    8.142831496118    2.303638113887    0.000000000000
 C    8.353745414895    0.143382209527    0.000000000000
 H    9.445995413217    0.160234674229    0.000000000000
 C    7.656419087749   -1.078371266412    0.000000000000
 H    8.209408222788   -2.022377844264    0.000000000000
 C    6.251447150800   -1.101360002476    0.000000000000
 H    5.714293747934   -2.055533688022    0.000000000000
