26

 C   -7.651526433965   -0.130076324951    0.000000000000
 H   -8.743776433965   -0.146926324951    0.000000000000
 C   -6.954196433965    1.091673675049    0.000000000000
 H   -7.507186433965    2.035673675049    0.000000000000
 C   -6.916916433965   -1.329766324951    0.000000000000
 H   -7.440616433965   -2.290336324951    0.000000000000
 C   -5.549216433965    1.114663675049    0.000000000000
 H   -5.012066433965    2.068833675049    0.000000000000
 C   -5.511896433965   -1.309616324951    0.000000000000
 H   -4.945766433965   -2.246716324951    0.000000000000
 C   -4.787846433965   -0.086066324951    0.000000000000
 O   -3.451426433965   -0.065376324951    0.000000000000
NA   -1.905636433965   -0.036096324951    1.503390000000
NA   -1.905636433965   -0.036096324951   -1.503390000000
 O    4.393233679417    0.083215429505    0.000000000000
 C    5.729653563452    0.103903347608    0.000000000000
 C    6.453702681687    1.327451085656    0.000000000000
 H    5.887566506904    2.264555379319    0.000000000000
 C    7.858728122458    1.347606474153    0.000000000000
 H    8.382417918573    2.308176305006    0.000000000000
 C    8.593331837351    0.147920400646    0.000000000000
 H    9.685581835672    0.164772865347    0.000000000000
 C    7.896005510204   -1.073833075293    0.000000000000
 H    8.448994645244   -2.017839653146    0.000000000000
 C    6.491033573255   -1.096821811357    0.000000000000
 H    5.953880170389   -2.050995496903    0.000000000000
