26

 C   -7.731697353321   -0.131594904136    0.000000000000
 H   -8.823947353321   -0.148444904136    0.000000000000
 C   -7.034367353321    1.090155095864    0.000000000000
 H   -7.587357353321    2.034155095864    0.000000000000
 C   -6.997087353321   -1.331284904136    0.000000000000
 H   -7.520787353321   -2.291854904136    0.000000000000
 C   -5.629387353321    1.113145095864    0.000000000000
 H   -5.092237353321    2.067315095864    0.000000000000
 C   -5.592067353321   -1.311134904136    0.000000000000
 H   -5.025937353321   -2.248234904136    0.000000000000
 C   -4.868017353321   -0.087584904136    0.000000000000
 O   -3.531597353321   -0.066894904136    0.000000000000
NA   -1.985807353321   -0.037614904136    1.503390000000
NA   -1.985807353321   -0.037614904136   -1.503390000000
 O    4.513026890644    0.085484525064    0.000000000000
 C    5.849446774680    0.106172443167    0.000000000000
 C    6.573495892915    1.329720181215    0.000000000000
 H    6.007359718132    2.266824474879    0.000000000000
 C    7.978521333686    1.349875569712    0.000000000000
 H    8.502211129801    2.310445400565    0.000000000000
 C    8.713125048578    0.150189496205    0.000000000000
 H    9.805375046900    0.167041960907    0.000000000000
 C    8.015798721432   -1.071563979734    0.000000000000
 H    8.568787856472   -2.015570557586    0.000000000000
 C    6.610826784483   -1.094552715797    0.000000000000
 H    6.073673381617   -2.048726401344    0.000000000000
