26

 C   -7.811868272676   -0.133113483321    0.000000000000
 H   -8.904118272676   -0.149963483321    0.000000000000
 C   -7.114538272676    1.088636516679    0.000000000000
 H   -7.667528272676    2.032636516679    0.000000000000
 C   -7.077258272676   -1.332803483321    0.000000000000
 H   -7.600958272676   -2.293373483321    0.000000000000
 C   -5.709558272676    1.111626516679    0.000000000000
 H   -5.172408272676    2.065796516679    0.000000000000
 C   -5.672238272676   -1.312653483321    0.000000000000
 H   -5.106108272676   -2.249753483321    0.000000000000
 C   -4.948188272676   -0.089103483321    0.000000000000
 O   -3.611768272676   -0.068413483321    0.000000000000
NA   -2.065978272676   -0.039133483321    1.503390000000
NA   -2.065978272676   -0.039133483321   -1.503390000000
 O    4.632820101872    0.087753620624    0.000000000000
 C    5.969239985907    0.108441538727    0.000000000000
 C    6.693289104143    1.331989276775    0.000000000000
 H    6.127152929360    2.269093570438    0.000000000000
 C    8.098314544914    1.352144665272    0.000000000000
 H    8.622004341029    2.312714496125    0.000000000000
 C    8.832918259806    0.152458591765    0.000000000000
 H    9.925168258128    0.169311056466    0.000000000000
 C    8.135591932660   -1.069294884174    0.000000000000
 H    8.688581067699   -2.013301462027    0.000000000000
 C    6.730619995711   -1.092283620238    0.000000000000
 H    6.193466592845   -2.046457305784    0.000000000000
