26

 C   -7.932124651710   -0.135391352099    0.000000000000
 H   -9.024374651710   -0.152241352099    0.000000000000
 C   -7.234794651710    1.086358647901    0.000000000000
 H   -7.787784651710    2.030358647901    0.000000000000
 C   -7.197514651710   -1.335081352099    0.000000000000
 H   -7.721214651710   -2.295651352099    0.000000000000
 C   -5.829814651710    1.109348647901    0.000000000000
 H   -5.292664651710    2.063518647901    0.000000000000
 C   -5.792494651710   -1.314931352099    0.000000000000
 H   -5.226364651710   -2.252031352099    0.000000000000
 C   -5.068444651710   -0.091381352099    0.000000000000
 O   -3.732024651710   -0.070691352099    0.000000000000
NA   -2.186234651710   -0.041411352099    1.503390000000
NA   -2.186234651710   -0.041411352099   -1.503390000000
 O    4.812509918714    0.091157263963    0.000000000000
 C    6.148929802749    0.111845182066    0.000000000000
 C    6.872978920984    1.335392920114    0.000000000000
 H    6.306842746201    2.272497213777    0.000000000000
 C    8.278004361756    1.355548308611    0.000000000000
 H    8.801694157870    2.316118139464    0.000000000000
 C    9.012608076648    0.155862235104    0.000000000000
 H   10.104858074969    0.172714699805    0.000000000000
 C    8.315281749502   -1.065891240835    0.000000000000
 H    8.868270884541   -2.009897818688    0.000000000000
 C    6.910309812553   -1.088879976899    0.000000000000
 H    6.373156409686   -2.043053662445    0.000000000000
