26

 C   -7.972210111388   -0.136150641691    0.000000000000
 H   -9.064460111388   -0.153000641691    0.000000000000
 C   -7.274880111388    1.085599358309    0.000000000000
 H   -7.827870111388    2.029599358309    0.000000000000
 C   -7.237600111388   -1.335840641691    0.000000000000
 H   -7.761300111388   -2.296410641691    0.000000000000
 C   -5.869900111388    1.108589358309    0.000000000000
 H   -5.332750111388    2.062759358309    0.000000000000
 C   -5.832580111388   -1.315690641691    0.000000000000
 H   -5.266450111388   -2.252790641691    0.000000000000
 C   -5.108530111388   -0.092140641691    0.000000000000
 O   -3.772110111388   -0.071450641691    0.000000000000
NA   -2.226320111388   -0.042170641691    1.503390000000
NA   -2.226320111388   -0.042170641691   -1.503390000000
 O    4.872406524328    0.092291811743    0.000000000000
 C    6.208826408363    0.112979729846    0.000000000000
 C    6.932875526598    1.336527467894    0.000000000000
 H    6.366739351815    2.273631761557    0.000000000000
 C    8.337900967370    1.356682856390    0.000000000000
 H    8.861590763484    2.317252687243    0.000000000000
 C    9.072504682262    0.156996782883    0.000000000000
 H   10.164754680583    0.173849247585    0.000000000000
 C    8.375178355116   -1.064756693056    0.000000000000
 H    8.928167490155   -2.008763270908    0.000000000000
 C    6.970206418167   -1.087745429119    0.000000000000
 H    6.433053015300   -2.041919114666    0.000000000000
