26

 C   -8.012295571066   -0.136909931284    0.000000000000
 H   -9.104545571066   -0.153759931284    0.000000000000
 C   -7.314965571066    1.084840068716    0.000000000000
 H   -7.867955571066    2.028840068716    0.000000000000
 C   -7.277685571066   -1.336599931284    0.000000000000
 H   -7.801385571066   -2.297169931284    0.000000000000
 C   -5.909985571066    1.107830068716    0.000000000000
 H   -5.372835571066    2.062000068716    0.000000000000
 C   -5.872665571066   -1.316449931284    0.000000000000
 H   -5.306535571066   -2.253549931284    0.000000000000
 C   -5.148615571066   -0.092899931284    0.000000000000
 O   -3.812195571066   -0.072209931284    0.000000000000
NA   -2.266405571066   -0.042929931284    1.503390000000
NA   -2.266405571066   -0.042929931284   -1.503390000000
 O    4.932303129942    0.093426359522    0.000000000000
 C    6.268723013977    0.114114277625    0.000000000000
 C    6.992772132212    1.337662015673    0.000000000000
 H    6.426635957429    2.274766309337    0.000000000000
 C    8.397797572983    1.357817404170    0.000000000000
 H    8.921487369098    2.318387235023    0.000000000000
 C    9.132401287876    0.158131330663    0.000000000000
 H   10.224651286197    0.174983795365    0.000000000000
 C    8.435074960730   -1.063622145276    0.000000000000
 H    8.988064095769   -2.007628723128    0.000000000000
 C    7.030103023781   -1.086610881339    0.000000000000
 H    6.492949620914   -2.040784566886    0.000000000000
