26

 C   -8.252808329133   -0.141465668840    0.000000000000
 H   -9.345058329133   -0.158315668840    0.000000000000
 C   -7.555478329133    1.080284331160    0.000000000000
 H   -8.108468329133    2.024284331160    0.000000000000
 C   -7.518198329133   -1.341155668840    0.000000000000
 H   -8.041898329133   -2.301725668840    0.000000000000
 C   -6.150498329133    1.103274331160    0.000000000000
 H   -5.613348329133    2.057444331160    0.000000000000
 C   -6.113178329133   -1.321005668840    0.000000000000
 H   -5.547048329133   -2.258105668840    0.000000000000
 C   -5.389128329133   -0.097455668840    0.000000000000
 O   -4.052708329133   -0.076765668840    0.000000000000
NA   -2.506918329133   -0.047485668840    1.503390000000
NA   -2.506918329133   -0.047485668840   -1.503390000000
 O    5.291682763625    0.100233646200    0.000000000000
 C    6.628102647660    0.120921564303    0.000000000000
 C    7.352151765896    1.344469302352    0.000000000000
 H    6.786015591113    2.281573596015    0.000000000000
 C    8.757177206667    1.364624690848    0.000000000000
 H    9.280867002782    2.325194521701    0.000000000000
 C    9.491780921559    0.164938617341    0.000000000000
 H   10.584030919881    0.181791082043    0.000000000000
 C    8.794454594413   -1.056814858598    0.000000000000
 H    9.347443729452   -2.000821436450    0.000000000000
 C    7.389482657464   -1.079803594661    0.000000000000
 H    6.852329254598   -2.033977280208    0.000000000000
