26

 C   -8.332979248489   -0.142984248025    0.000000000000
 H   -9.425229248489   -0.159834248025    0.000000000000
 C   -7.635649248489    1.078765751975    0.000000000000
 H   -8.188639248489    2.022765751975    0.000000000000
 C   -7.598369248489   -1.342674248025    0.000000000000
 H   -8.122069248489   -2.303244248025    0.000000000000
 C   -6.230669248489    1.101755751975    0.000000000000
 H   -5.693519248489    2.055925751975    0.000000000000
 C   -6.193349248489   -1.322524248025    0.000000000000
 H   -5.627219248489   -2.259624248025    0.000000000000
 C   -5.469299248489   -0.098974248025    0.000000000000
 O   -4.132879248489   -0.078284248025    0.000000000000
NA   -2.587089248489   -0.049004248025    1.503390000000
NA   -2.587089248489   -0.049004248025   -1.503390000000
 O    5.411475974853    0.102502741760    0.000000000000
 C    6.747895858888    0.123190659863    0.000000000000
 C    7.471944977123    1.346738397911    0.000000000000
 H    6.905808802340    2.283842691574    0.000000000000
 C    8.876970417895    1.366893786408    0.000000000000
 H    9.400660214009    2.327463617261    0.000000000000
 C    9.611574132787    0.167207712901    0.000000000000
 H   10.703824131108    0.184060177602    0.000000000000
 C    8.914247805641   -1.054545763038    0.000000000000
 H    9.467236940680   -1.998552340891    0.000000000000
 C    7.509275868692   -1.077534499102    0.000000000000
 H    6.972122465825   -2.031708184648    0.000000000000
