26

 C   -8.413150167844   -0.144502827210    0.000000000000
 H   -9.505400167844   -0.161352827210    0.000000000000
 C   -7.715820167844    1.077247172790    0.000000000000
 H   -8.268810167844    2.021247172790    0.000000000000
 C   -7.678540167844   -1.344192827210    0.000000000000
 H   -8.202240167844   -2.304762827210    0.000000000000
 C   -6.310840167844    1.100237172790    0.000000000000
 H   -5.773690167844    2.054407172790    0.000000000000
 C   -6.273520167844   -1.324042827210    0.000000000000
 H   -5.707390167844   -2.261142827210    0.000000000000
 C   -5.549470167844   -0.100492827210    0.000000000000
 O   -4.213050167844   -0.079802827210    0.000000000000
NA   -2.667260167844   -0.050522827210    1.503390000000
NA   -2.667260167844   -0.050522827210   -1.503390000000
 O    5.531269186081    0.104771837319    0.000000000000
 C    6.867689070116    0.125459755422    0.000000000000
 C    7.591738188351    1.349007493470    0.000000000000
 H    7.025602013568    2.286111787134    0.000000000000
 C    8.996763629122    1.369162881967    0.000000000000
 H    9.520453425237    2.329732712820    0.000000000000
 C    9.731367344015    0.169476808460    0.000000000000
 H   10.823617342336    0.186329273162    0.000000000000
 C    9.034041016868   -1.052276667479    0.000000000000
 H    9.587030151908   -1.996283245331    0.000000000000
 C    7.629069079919   -1.075265403543    0.000000000000
 H    7.091915677053   -2.029439089089    0.000000000000
