26

 C   -8.453235627522   -0.145262116803    0.000000000000
 H   -9.545485627522   -0.162112116803    0.000000000000
 C   -7.755905627522    1.076487883197    0.000000000000
 H   -8.308895627522    2.020487883197    0.000000000000
 C   -7.718625627522   -1.344952116803    0.000000000000
 H   -8.242325627522   -2.305522116803    0.000000000000
 C   -6.350925627522    1.099477883197    0.000000000000
 H   -5.813775627522    2.053647883197    0.000000000000
 C   -6.313605627522   -1.324802116803    0.000000000000
 H   -5.747475627522   -2.261902116803    0.000000000000
 C   -5.589555627522   -0.101252116803    0.000000000000
 O   -4.253135627522   -0.080562116803    0.000000000000
NA   -2.707345627522   -0.051282116803    1.503390000000
NA   -2.707345627522   -0.051282116803   -1.503390000000
 O    5.591165791695    0.105906385099    0.000000000000
 C    6.927585675730    0.126594303202    0.000000000000
 C    7.651634793965    1.350142041250    0.000000000000
 H    7.085498619182    2.287246334913    0.000000000000
 C    9.056660234736    1.370297429747    0.000000000000
 H    9.580350030851    2.330867260600    0.000000000000
 C    9.791263949629    0.170611356240    0.000000000000
 H   10.883513947950    0.187463820941    0.000000000000
 C    9.093937622482   -1.051142119699    0.000000000000
 H    9.646926757522   -1.995148697552    0.000000000000
 C    7.688965685533   -1.074130855763    0.000000000000
 H    7.151812282667   -2.028304541309    0.000000000000
