26

 C   -8.493321087200   -0.146021406395    0.000000000000
 H   -9.585571087200   -0.162871406395    0.000000000000
 C   -7.795991087200    1.075728593605    0.000000000000
 H   -8.348981087200    2.019728593605    0.000000000000
 C   -7.758711087200   -1.345711406395    0.000000000000
 H   -8.282411087200   -2.306281406395    0.000000000000
 C   -6.391011087200    1.098718593605    0.000000000000
 H   -5.853861087200    2.052888593605    0.000000000000
 C   -6.353691087200   -1.325561406395    0.000000000000
 H   -5.787561087200   -2.262661406395    0.000000000000
 C   -5.629641087200   -0.102011406395    0.000000000000
 O   -4.293221087200   -0.081321406395    0.000000000000
NA   -2.747431087200   -0.052041406395    1.503390000000
NA   -2.747431087200   -0.052041406395   -1.503390000000
 O    5.651062397308    0.107040932879    0.000000000000
 C    6.987482281344    0.127728850982    0.000000000000
 C    7.711531399579    1.351276589030    0.000000000000
 H    7.145395224796    2.288380882693    0.000000000000
 C    9.116556840350    1.371431977526    0.000000000000
 H    9.640246636465    2.332001808379    0.000000000000
 C    9.851160555242    0.171745904019    0.000000000000
 H   10.943410553564    0.188598368721    0.000000000000
 C    9.153834228096   -1.050007571920    0.000000000000
 H    9.706823363136   -1.994014149772    0.000000000000
 C    7.748862291147   -1.072996307983    0.000000000000
 H    7.211708888281   -2.027169993530    0.000000000000
