26

 C   -8.613577466234   -0.148299275173    0.000000000000
 H   -9.705827466234   -0.165149275173    0.000000000000
 C   -7.916247466234    1.073450724827    0.000000000000
 H   -8.469237466234    2.017450724827    0.000000000000
 C   -7.878967466234   -1.347989275173    0.000000000000
 H   -8.402667466234   -2.308559275173    0.000000000000
 C   -6.511267466234    1.096440724827    0.000000000000
 H   -5.974117466234    2.050610724827    0.000000000000
 C   -6.473947466234   -1.327839275173    0.000000000000
 H   -5.907817466234   -2.264939275173    0.000000000000
 C   -5.749897466234   -0.104289275173    0.000000000000
 O   -4.413477466234   -0.083599275173    0.000000000000
NA   -2.867687466234   -0.054319275173    1.503390000000
NA   -2.867687466234   -0.054319275173   -1.503390000000
 O    5.830752214150    0.110444576218    0.000000000000
 C    7.167172098185    0.131132494321    0.000000000000
 C    7.891221216421    1.354680232369    0.000000000000
 H    7.325085041638    2.291784526032    0.000000000000
 C    9.296246657192    1.374835620865    0.000000000000
 H    9.819936453307    2.335405451719    0.000000000000
 C   10.030850372084    0.175149547358    0.000000000000
 H   11.123100370406    0.192002012060    0.000000000000
 C    9.333524044938   -1.046603928581    0.000000000000
 H    9.886513179977   -1.990610506433    0.000000000000
 C    7.928552107989   -1.069592664644    0.000000000000
 H    7.391398705123   -2.023766350190    0.000000000000
