26

 C   -8.733833845267   -0.150577143951    0.000000000000
 H   -9.826083845267   -0.167427143951    0.000000000000
 C   -8.036503845267    1.071172856049    0.000000000000
 H   -8.589493845267    2.015172856049    0.000000000000
 C   -7.999223845267   -1.350267143951    0.000000000000
 H   -8.522923845267   -2.310837143951    0.000000000000
 C   -6.631523845267    1.094162856049    0.000000000000
 H   -6.094373845267    2.048332856049    0.000000000000
 C   -6.594203845267   -1.330117143951    0.000000000000
 H   -6.028073845267   -2.267217143951    0.000000000000
 C   -5.870153845267   -0.106567143951    0.000000000000
 O   -4.533733845267   -0.085877143951    0.000000000000
NA   -2.987943845267   -0.056597143951    1.503390000000
NA   -2.987943845267   -0.056597143951   -1.503390000000
 O    6.010442030992    0.113848219557    0.000000000000
 C    7.346861915027    0.134536137660    0.000000000000
 C    8.070911033262    1.358083875708    0.000000000000
 H    7.504774858479    2.295188169371    0.000000000000
 C    9.475936474034    1.378239264205    0.000000000000
 H    9.999626270148    2.338809095058    0.000000000000
 C   10.210540188926    0.178553190698    0.000000000000
 H   11.302790187247    0.195405655399    0.000000000000
 C    9.513213861780   -1.043200285241    0.000000000000
 H   10.066202996819   -1.987206863094    0.000000000000
 C    8.108241924831   -1.066189021305    0.000000000000
 H    7.571088521964   -2.020362706851    0.000000000000
