26

 C   -8.773919304945   -0.151336433544    0.000000000000
 H   -9.866169304945   -0.168186433544    0.000000000000
 C   -8.076589304945    1.070413566456    0.000000000000
 H   -8.629579304945    2.014413566456    0.000000000000
 C   -8.039309304945   -1.351026433544    0.000000000000
 H   -8.563009304945   -2.311596433544    0.000000000000
 C   -6.671609304945    1.093403566456    0.000000000000
 H   -6.134459304945    2.047573566456    0.000000000000
 C   -6.634289304945   -1.330876433544    0.000000000000
 H   -6.068159304945   -2.267976433544    0.000000000000
 C   -5.910239304945   -0.107326433544    0.000000000000
 O   -4.573819304945   -0.086636433544    0.000000000000
NA   -3.028029304945   -0.057356433544    1.503390000000
NA   -3.028029304945   -0.057356433544   -1.503390000000
 O    6.070338636606    0.114982767336    0.000000000000
 C    7.406758520641    0.135670685439    0.000000000000
 C    8.130807638876    1.359218423488    0.000000000000
 H    7.564671464093    2.296322717151    0.000000000000
 C    9.535833079648    1.379373811984    0.000000000000
 H   10.059522875762    2.339943642837    0.000000000000
 C   10.270436794540    0.179687738477    0.000000000000
 H   11.362686792861    0.196540203179    0.000000000000
 C    9.573110467394   -1.042065737462    0.000000000000
 H   10.126099602433   -1.986072315314    0.000000000000
 C    8.168138530445   -1.065054473525    0.000000000000
 H    7.630985127578   -2.019228159072    0.000000000000
