26

 C   -8.814004764623   -0.152095723136    0.000000000000
 H   -9.906254764623   -0.168945723136    0.000000000000
 C   -8.116674764623    1.069654276864    0.000000000000
 H   -8.669664764623    2.013654276864    0.000000000000
 C   -8.079394764623   -1.351785723136    0.000000000000
 H   -8.603094764623   -2.312355723136    0.000000000000
 C   -6.711694764623    1.092644276864    0.000000000000
 H   -6.174544764623    2.046814276864    0.000000000000
 C   -6.674374764623   -1.331635723136    0.000000000000
 H   -6.108244764623   -2.268735723136    0.000000000000
 C   -5.950324764623   -0.108085723136    0.000000000000
 O   -4.613904764623   -0.087395723136    0.000000000000
NA   -3.068114764623   -0.058115723136    1.503390000000
NA   -3.068114764623   -0.058115723136   -1.503390000000
 O    6.130235242220    0.116117315116    0.000000000000
 C    7.466655126255    0.136805233219    0.000000000000
 C    8.190704244490    1.360352971267    0.000000000000
 H    7.624568069707    2.297457264931    0.000000000000
 C    9.595729685261    1.380508359764    0.000000000000
 H   10.119419481376    2.341078190617    0.000000000000
 C   10.330333400154    0.180822286257    0.000000000000
 H   11.422583398475    0.197674750959    0.000000000000
 C    9.633007073007   -1.040931189682    0.000000000000
 H   10.185996208047   -1.984937767534    0.000000000000
 C    8.228035136058   -1.063919925746    0.000000000000
 H    7.690881733192   -2.018093611292    0.000000000000
