26

 C   -8.894175683979   -0.153614302322    0.000000000000
 H   -9.986425683979   -0.170464302322    0.000000000000
 C   -8.196845683979    1.068135697678    0.000000000000
 H   -8.749835683979    2.012135697678    0.000000000000
 C   -8.159565683979   -1.353304302322    0.000000000000
 H   -8.683265683979   -2.313874302322    0.000000000000
 C   -6.791865683979    1.091125697678    0.000000000000
 H   -6.254715683979    2.045295697678    0.000000000000
 C   -6.754545683979   -1.333154302322    0.000000000000
 H   -6.188415683979   -2.270254302322    0.000000000000
 C   -6.030495683979   -0.109604302322    0.000000000000
 O   -4.694075683979   -0.088914302322    0.000000000000
NA   -3.148285683979   -0.059634302322    1.503390000000
NA   -3.148285683979   -0.059634302322   -1.503390000000
 O    6.250028453447    0.118386410676    0.000000000000
 C    7.586448337483    0.139074328779    0.000000000000
 C    8.310497455718    1.362622066827    0.000000000000
 H    7.744361280935    2.299726360490    0.000000000000
 C    9.715522896489    1.382777455323    0.000000000000
 H   10.239212692604    2.343347286176    0.000000000000
 C   10.450126611381    0.183091381816    0.000000000000
 H   11.542376609703    0.199943846518    0.000000000000
 C    9.752800284235   -1.038662094123    0.000000000000
 H   10.305789419275   -1.982668671975    0.000000000000
 C    8.347828347286   -1.061650830186    0.000000000000
 H    7.810674944420   -2.015824515733    0.000000000000
