26

 C   -9.094602982368   -0.157410750285    0.000000000000
 H  -10.186852982368   -0.174260750285    0.000000000000
 C   -8.397272982368    1.064339249715    0.000000000000
 H   -8.950262982368    2.008339249715    0.000000000000
 C   -8.359992982368   -1.357100750285    0.000000000000
 H   -8.883692982368   -2.317670750285    0.000000000000
 C   -6.992292982368    1.087329249715    0.000000000000
 H   -6.455142982368    2.041499249715    0.000000000000
 C   -6.954972982368   -1.336950750285    0.000000000000
 H   -6.388842982368   -2.274050750285    0.000000000000
 C   -6.230922982368   -0.113400750285    0.000000000000
 O   -4.894502982368   -0.092710750285    0.000000000000
NA   -3.348712982368   -0.063430750285    1.503390000000
NA   -3.348712982368   -0.063430750285   -1.503390000000
 O    6.549511481517    0.124059149574    0.000000000000
 C    7.885931365552    0.144747067677    0.000000000000
 C    8.609980483787    1.368294805725    0.000000000000
 H    8.043844309005    2.305399099388    0.000000000000
 C   10.015005924559    1.388450194222    0.000000000000
 H   10.538695720674    2.349020025075    0.000000000000
 C   10.749609639451    0.188764120715    0.000000000000
 H   11.841859637772    0.205616585416    0.000000000000
 C   10.052283312305   -1.032989355224    0.000000000000
 H   10.605272447344   -1.976995933076    0.000000000000
 C    8.647311375356   -1.055978091288    0.000000000000
 H    8.110157972490   -2.010151776834    0.000000000000
