14

 P   -0.628848879557    0.387852357647   -0.239314928621
 O   -1.215848879557    1.437852357647    0.715685071379
 O   -0.894848879557    0.435852357647   -1.751314928621
 O    1.034151120443    0.213852357647    0.047685071379
 O   -0.943848879557   -1.170147642353    0.352685071379
 C    1.771151120443    1.378852357647   -0.329314928621
 H    1.440151120443    2.261852357647    0.246685071379
 H    1.656151120443    1.589852357647   -1.407314928621
 H    2.831151120443    1.176852357647   -0.109314928621
 C   -2.334848879557   -1.493147642353    0.302685071379
 H   -2.712848879557   -1.466147642353   -0.735314928621
 H   -2.927848879557   -0.794147642353    0.918685071379
 H   -2.444848879557   -2.513147642353    0.702685071379
 K    1.558712667583   -0.656321008487    0.469150961024
