14

 P   -0.674177793307    0.463046610211   -0.275735041885
 O   -1.261177793307    1.513046610211    0.679264958115
 O   -0.940177793307    0.511046610211   -1.787735041885
 O    0.988822206693    0.289046610211    0.011264958115
 O   -0.989177793307   -1.094953389789    0.316264958115
 C    1.725822206693    1.454046610211   -0.365735041885
 H    1.394822206693    2.337046610211    0.210264958115
 H    1.610822206693    1.665046610211   -1.443735041885
 H    2.785822206693    1.252046610211   -0.145735041885
 C   -2.380177793307   -1.417953389789    0.266264958115
 H   -2.758177793307   -1.390953389789   -0.771735041885
 H   -2.973177793307   -0.718953389789    0.882264958115
 H   -2.490177793307   -2.437953389789    0.666264958115
 K    1.704133407338   -0.897553434516    0.585991171268
