14

 P   -0.685510021745    0.481845173352   -0.284840070201
 O   -1.272510021745    1.531845173352    0.670159929799
 O   -0.951510021745    0.529845173352   -1.796840070201
 O    0.977489978255    0.307845173352    0.002159929799
 O   -1.000510021745   -1.076154826648    0.307159929799
 C    1.714489978255    1.472845173352   -0.374840070201
 H    1.383489978255    2.355845173352    0.201159929799
 H    1.599489978255    1.683845173352   -1.452840070201
 H    2.774489978255    1.270845173352   -0.154840070201
 C   -2.391510021745   -1.399154826648    0.257159929799
 H   -2.769510021745   -1.372154826648   -0.780840070201
 H   -2.984510021745   -0.700154826648    0.873159929799
 H   -2.501510021745   -2.419154826648    0.657159929799
 K    1.740488592277   -0.957861541023    0.615201223829
