14

 P   -0.730838935495    0.557039425917   -0.321260183464
 O   -1.317838935495    1.607039425917    0.633739816536
 O   -0.996838935495    0.605039425917   -1.833260183464
 O    0.932161064505    0.383039425917   -0.034260183464
 O   -1.045838935495   -1.000960574083    0.270739816536
 C    1.669161064505    1.548039425917   -0.411260183464
 H    1.338161064505    2.431039425917    0.164739816536
 H    1.554161064505    1.759039425917   -1.489260183464
 H    2.729161064505    1.346039425917   -0.191260183464
 C   -2.436838935495   -1.323960574083    0.220739816536
 H   -2.814838935495   -1.296960574083   -0.817260183464
 H   -3.029838935495   -0.624960574083    0.836739816536
 H   -2.546838935495   -2.343960574083    0.620739816536
 K    1.885909332032   -1.199093967053    0.732041434074
