14

 P   -0.753503392370    0.594636552199   -0.339470240096
 O   -1.340503392370    1.644636552199    0.615529759904
 O   -1.019503392370    0.642636552199   -1.851470240096
 O    0.909496607630    0.420636552199   -0.052470240096
 O   -1.068503392370   -0.963363447801    0.252529759904
 C    1.646496607630    1.585636552199   -0.429470240096
 H    1.315496607630    2.468636552199    0.146529759904
 H    1.531496607630    1.796636552199   -1.507470240096
 H    2.706496607630    1.383636552199   -0.209470240096
 C   -2.459503392370   -1.286363447801    0.202529759904
 H   -2.837503392370   -1.259363447801   -0.835470240096
 H   -3.052503392370   -0.587363447801    0.818529759904
 H   -2.569503392370   -2.306363447801    0.602529759904
 K    1.958619701909   -1.319710180068    0.790461539196
