14

 P   -0.787500077683    0.651032241622   -0.366785325043
 O   -1.374500077683    1.701032241622    0.588214674957
 O   -1.053500077683    0.699032241622   -1.878785325043
 O    0.875499922317    0.477032241622   -0.079785325043
 O   -1.102500077683   -0.906967758378    0.225214674957
 C    1.612499922317    1.642032241622   -0.456785325043
 H    1.281499922317    2.525032241622    0.119214674957
 H    1.497499922317    1.853032241622   -1.534785325043
 H    2.672499922317    1.440032241622   -0.236785325043
 C   -2.493500077683   -1.229967758378    0.175214674957
 H   -2.871500077683   -1.202967758378   -0.862785325043
 H   -3.086500077683   -0.530967758378    0.791214674957
 H   -2.603500077683   -2.249967758378    0.575214674957
 K    2.067685256725   -1.500634499590    0.878091696879
