14

 P   -0.832828991433    0.726226494187   -0.403205438306
 O   -1.419828991433    1.776226494187    0.551794561694
 O   -1.098828991433    0.774226494187   -1.915205438306
 O    0.830171008567    0.552226494187   -0.116205438306
 O   -1.147828991433   -0.831773505813    0.188794561694
 C    1.567171008567    1.717226494187   -0.493205438306
 H    1.236171008567    2.600226494187    0.082794561694
 H    1.452171008567    1.928226494187   -1.571205438306
 H    2.627171008567    1.515226494187   -0.273205438306
 C   -2.538828991433   -1.154773505813    0.138794561694
 H   -2.916828991433   -1.127773505813   -0.899205438306
 H   -3.131828991433   -0.455773505813    0.754794561694
 H   -2.648828991433   -2.174773505813    0.538794561694
 K    2.213105996480   -1.741866925619    0.994931907123
