14

 P   -0.844161219870    0.745025057328   -0.412310466622
 O   -1.431161219870    1.795025057328    0.542689533378
 O   -1.110161219870    0.793025057328   -1.924310466622
 O    0.818838780130    0.571025057328   -0.125310466622
 O   -1.159161219870   -0.812974942672    0.179689533378
 C    1.555838780130    1.736025057328   -0.502310466622
 H    1.224838780130    2.619025057328    0.073689533378
 H    1.440838780130    1.947025057328   -1.580310466622
 H    2.615838780130    1.534025057328   -0.282310466622
 C   -2.550161219870   -1.135974942672    0.129689533378
 H   -2.928161219870   -1.108974942672   -0.908310466622
 H   -3.143161219870   -0.436974942672    0.745689533378
 H   -2.660161219870   -2.155974942672    0.529689533378
 K    2.249461181419   -1.802175032127    1.024141959684
