14

 P   -0.866825676746    0.782622183610   -0.430520523254
 O   -1.453825676746    1.832622183610    0.524479476746
 O   -1.132825676746    0.830622183610   -1.942520523254
 O    0.796174323254    0.608622183610   -0.143520523254
 O   -1.181825676746   -0.775377816390    0.161479476746
 C    1.533174323254    1.773622183610   -0.520520523254
 H    1.202174323254    2.656622183610    0.055479476746
 H    1.418174323254    1.984622183610   -1.598520523254
 H    2.593174323254    1.571622183610   -0.300520523254
 C   -2.572825676746   -1.098377816390    0.111479476746
 H   -2.950825676746   -1.071377816390   -0.926520523254
 H   -3.165825676746   -0.399377816390    0.727479476746
 H   -2.682825676746   -2.118377816390    0.511479476746
 K    2.322171551297   -1.922791245141    1.082562064806
