14

 P   -0.912154590496    0.857816436175   -0.466940636517
 O   -1.499154590496    1.907816436175    0.488059363483
 O   -1.178154590496    0.905816436175   -1.978940636517
 O    0.750845409504    0.683816436175   -0.179940636517
 O   -1.227154590496   -0.700183563825    0.125059363483
 C    1.487845409504    1.848816436175   -0.556940636517
 H    1.156845409504    2.731816436175    0.019059363483
 H    1.372845409504    2.059816436175   -1.634940636517
 H    2.547845409504    1.646816436175   -0.336940636517
 C   -2.618154590496   -1.023183563825    0.075059363483
 H   -2.996154590496   -0.996183563825   -0.962940636517
 H   -3.211154590496   -0.324183563825    0.691059363483
 H   -2.728154590496   -2.043183563825    0.475059363483
 K    2.467592291052   -2.164023671171    1.199402275050
