14

 P   -0.934819047371    0.895413562457   -0.485150693149
 O   -1.521819047371    1.945413562457    0.469849306851
 O   -1.200819047371    0.943413562457   -1.997150693149
 O    0.728180952629    0.721413562457   -0.198150693149
 O   -1.249819047371   -0.662586437543    0.106849306851
 C    1.465180952629    1.886413562457   -0.575150693149
 H    1.134180952629    2.769413562457    0.000849306851
 H    1.350180952629    2.097413562457   -1.653150693149
 H    2.525180952629    1.684413562457   -0.355150693149
 C   -2.640819047371   -0.985586437543    0.056849306851
 H   -3.018819047371   -0.958586437543   -0.981150693149
 H   -3.233819047371   -0.286586437543    0.672849306851
 H   -2.750819047371   -2.005586437543    0.456849306851
 K    2.540302660929   -2.284639884186    1.257822380172
