14

 P   -0.957483504246    0.933010688739   -0.503360749781
 O   -1.544483504246    1.983010688739    0.451639250219
 O   -1.223483504246    0.981010688739   -2.015360749781
 O    0.705516495754    0.759010688739   -0.216360749781
 O   -1.272483504246   -0.624989311261    0.088639250219
 C    1.442516495754    1.924010688739   -0.593360749781
 H    1.111516495754    2.807010688739   -0.017360749781
 H    1.327516495754    2.135010688739   -1.671360749781
 H    2.502516495754    1.722010688739   -0.373360749781
 C   -2.663483504246   -0.947989311261    0.038639250219
 H   -3.041483504246   -0.920989311261   -0.999360749781
 H   -3.256483504246   -0.248989311261    0.654639250219
 H   -2.773483504246   -1.967989311261    0.438639250219
 K    2.613013030807   -2.405256097200    1.316242485294
