14

 P   -0.968815732684    0.951809251880   -0.512465778096
 O   -1.555815732684    2.001809251880    0.442534221904
 O   -1.234815732684    0.999809251880   -2.024465778096
 O    0.694184267316    0.777809251880   -0.225465778096
 O   -1.283815732684   -0.606190748120    0.079534221904
 C    1.431184267316    1.942809251880   -0.602465778096
 H    1.100184267316    2.825809251880   -0.026465778096
 H    1.316184267316    2.153809251880   -1.680465778096
 H    2.491184267316    1.740809251880   -0.382465778096
 C   -2.674815732684   -0.929190748120    0.029534221904
 H   -3.052815732684   -0.902190748120   -1.008465778096
 H   -3.267815732684   -0.230190748120    0.645534221904
 H   -2.784815732684   -1.949190748120    0.429534221904
 K    2.649368215746   -2.465564203708    1.345452537855
