14

 P   -0.980147961121    0.970607815021   -0.521570806412
 O   -1.567147961121    2.020607815021    0.433429193588
 O   -1.246147961121    1.018607815021   -2.033570806412
 O    0.682852038879    0.796607815021   -0.234570806412
 O   -1.295147961121   -0.587392184979    0.070429193588
 C    1.419852038879    1.961607815021   -0.611570806412
 H    1.088852038879    2.844607815021   -0.035570806412
 H    1.304852038879    2.172607815021   -1.689570806412
 H    2.479852038879    1.759607815021   -0.391570806412
 C   -2.686147961121   -0.910392184979    0.020429193588
 H   -3.064147961121   -0.883392184979   -1.017570806412
 H   -3.279147961121   -0.211392184979    0.636429193588
 H   -2.796147961121   -1.930392184979    0.420429193588
 K    2.685723400684   -2.525872310215    1.374662590417
