14

 P   -1.002812417996    1.008204941303   -0.539780863044
 O   -1.589812417996    2.058204941303    0.415219136956
 O   -1.268812417996    1.056204941303   -2.051780863044
 O    0.660187582004    0.834204941303   -0.252780863044
 O   -1.317812417996   -0.549795058697    0.052219136956
 C    1.397187582004    1.999204941303   -0.629780863044
 H    1.066187582004    2.882204941303   -0.053780863044
 H    1.282187582004    2.210204941303   -1.707780863044
 H    2.457187582004    1.797204941303   -0.409780863044
 C   -2.708812417996   -0.872795058697    0.002219136956
 H   -3.086812417996   -0.845795058697   -1.035780863044
 H   -3.301812417996   -0.173795058697    0.618219136956
 H   -2.818812417996   -1.892795058697    0.402219136956
 K    2.758433770562   -2.646488523230    1.433082695539
