14

 P   -1.059473560184    1.102197757009   -0.585306004623
 O   -1.646473560184    2.152197757009    0.369693995377
 O   -1.325473560184    1.150197757009   -2.097306004623
 O    0.603526439816    0.928197757009   -0.298306004623
 O   -1.374473560184   -0.455802242991    0.006693995377
 C    1.340526439816    2.093197757009   -0.675306004623
 H    1.009526439816    2.976197757009   -0.099306004623
 H    1.225526439816    2.304197757009   -1.753306004623
 H    2.400526439816    1.891197757009   -0.455306004623
 C   -2.765473560184   -0.778802242991   -0.043306004623
 H   -3.143473560184   -0.751802242991   -1.081306004623
 H   -3.358473560184   -0.079802242991    0.572693995377
 H   -2.875473560184   -1.798802242991    0.356693995377
 K    2.940209695256   -2.948029055767    1.579132958344
