14

 P   -1.093470245497    1.158593446432   -0.612621089571
 O   -1.680470245497    2.208593446432    0.342378910429
 O   -1.359470245497    1.206593446432   -2.124621089571
 O    0.569529754503    0.984593446432   -0.325621089571
 O   -1.408470245497   -0.399406553568   -0.020621089571
 C    1.306529754503    2.149593446432   -0.702621089571
 H    0.975529754503    3.032593446432   -0.126621089571
 H    1.191529754503    2.360593446432   -1.780621089571
 H    2.366529754503    1.947593446432   -0.482621089571
 C   -2.799470245497   -0.722406553568   -0.070621089571
 H   -3.177470245497   -0.695406553568   -1.108621089571
 H   -3.392470245497   -0.023406553568    0.545378910429
 H   -2.909470245497   -1.742406553568    0.329378910429
 K    3.049275250072   -3.128953375289    1.666763116027
