14

 P   -1.127466930809    1.214989135856   -0.639936174518
 O   -1.714466930809    2.264989135856    0.315063825482
 O   -1.393466930809    1.262989135856   -2.151936174518
 O    0.535533069191    1.040989135856   -0.352936174518
 O   -1.442466930809   -0.343010864144   -0.047936174518
 C    1.272533069191    2.205989135856   -0.729936174518
 H    0.941533069191    3.088989135856   -0.153936174518
 H    1.157533069191    2.416989135856   -1.807936174518
 H    2.332533069191    2.003989135856   -0.509936174518
 C   -2.833466930809   -0.666010864144   -0.097936174518
 H   -3.211466930809   -0.639010864144   -1.135936174518
 H   -3.426466930809    0.032989135856    0.518063825482
 H   -2.943466930809   -1.686010864144    0.302063825482
 K    3.158340804888   -3.309877694811    1.754393273710
