14

 P   -1.150131387684    1.252586262138   -0.658146231150
 O   -1.737131387684    2.302586262138    0.296853768850
 O   -1.416131387684    1.300586262138   -2.170146231150
 O    0.512868612316    1.078586262138   -0.371146231150
 O   -1.465131387684   -0.305413737862   -0.066146231150
 C    1.249868612316    2.243586262138   -0.748146231150
 H    0.918868612316    3.126586262138   -0.172146231150
 H    1.134868612316    2.454586262138   -1.826146231150
 H    2.309868612316    2.041586262138   -0.528146231150
 C   -2.856131387684   -0.628413737862   -0.116146231150
 H   -3.234131387684   -0.601413737862   -1.154146231150
 H   -3.449131387684    0.070586262138    0.499853768850
 H   -2.966131387684   -1.648413737862    0.283853768850
 K    3.231051174766   -3.430493907826    1.812813378832
