14

 P   -1.161463616122    1.271384825279   -0.667251259466
 O   -1.748463616122    2.321384825279    0.287748740534
 O   -1.427463616122    1.319384825279   -2.179251259466
 O    0.501536383878    1.097384825279   -0.380251259466
 O   -1.476463616122   -0.286615174721   -0.075251259466
 C    1.238536383878    2.262384825279   -0.757251259466
 H    0.907536383878    3.145384825279   -0.181251259466
 H    1.123536383878    2.473384825279   -1.835251259466
 H    2.298536383878    2.060384825279   -0.537251259466
 C   -2.867463616122   -0.609615174721   -0.125251259466
 H   -3.245463616122   -0.582615174721   -1.163251259466
 H   -3.460463616122    0.089384825279    0.490748740534
 H   -2.977463616122   -1.629615174721    0.274748740534
 K    3.267406359704   -3.490802014333    1.842023431393
