14

 P   -1.206792529872    1.346579077843   -0.703671372729
 O   -1.793792529872    2.396579077843    0.251328627271
 O   -1.472792529872    1.394579077843   -2.215671372729
 O    0.456207470128    1.172579077843   -0.416671372729
 O   -1.521792529872   -0.211420922157   -0.111671372729
 C    1.193207470128    2.337579077843   -0.793671372729
 H    0.862207470128    3.220579077843   -0.217671372729
 H    1.078207470128    2.548579077843   -1.871671372729
 H    2.253207470128    2.135579077843   -0.573671372729
 C   -2.912792529872   -0.534420922157   -0.161671372729
 H   -3.290792529872   -0.507420922157   -1.199671372729
 H   -3.505792529872    0.164579077843    0.454328627271
 H   -3.022792529872   -1.554420922157    0.238328627271
 K    3.412827099460   -3.732034440363    1.958863641637
