14

 P   -1.252121443622    1.421773330408   -0.740091485992
 O   -1.839121443622    2.471773330408    0.214908514008
 O   -1.518121443622    1.469773330408   -2.252091485992
 O    0.410878556378    1.247773330408   -0.453091485992
 O   -1.567121443622   -0.136226669592   -0.148091485992
 C    1.147878556378    2.412773330408   -0.830091485992
 H    0.816878556378    3.295773330408   -0.254091485992
 H    1.032878556378    2.623773330408   -1.908091485992
 H    2.207878556378    2.210773330408   -0.610091485992
 C   -2.958121443622   -0.459226669592   -0.198091485992
 H   -3.336121443622   -0.432226669592   -1.236091485992
 H   -3.551121443622    0.239773330408    0.417908514008
 H   -3.068121443622   -1.479226669592    0.201908514008
 K    3.558247839215   -3.973266866392    2.075703851882
