14

 P   -1.274785900498    1.459370456690   -0.758301542624
 O   -1.861785900498    2.509370456690    0.196698457376
 O   -1.540785900498    1.507370456690   -2.270301542624
 O    0.388214099502    1.285370456690   -0.471301542624
 O   -1.589785900498   -0.098629543310   -0.166301542624
 C    1.125214099502    2.450370456690   -0.848301542624
 H    0.794214099502    3.333370456690   -0.272301542624
 H    1.010214099502    2.661370456690   -1.926301542624
 H    2.185214099502    2.248370456690   -0.628301542624
 C   -2.980785900498   -0.421629543310   -0.216301542624
 H   -3.358785900498   -0.394629543310   -1.254301542624
 H   -3.573785900498    0.277370456690    0.399698457376
 H   -3.090785900498   -1.441629543310    0.183698457376
 K    3.630958209092   -4.093883079407    2.134123957004
