14

 P   -1.308782585810    1.515766146114   -0.785616627571
 O   -1.895782585810    2.565766146114    0.169383372429
 O   -1.574782585810    1.563766146114   -2.297616627571
 O    0.354217414190    1.341766146114   -0.498616627571
 O   -1.623782585810   -0.042233853886   -0.193616627571
 C    1.091217414190    2.506766146114   -0.875616627571
 H    0.760217414190    3.389766146114   -0.299616627571
 H    0.976217414190    2.717766146114   -1.953616627571
 H    2.151217414190    2.304766146114   -0.655616627571
 C   -3.014782585810   -0.365233853886   -0.243616627571
 H   -3.392782585810   -0.338233853886   -1.281616627571
 H   -3.607782585810    0.333766146114    0.372383372429
 H   -3.124782585810   -1.385233853886    0.156383372429
 K    3.740023763908   -4.274807398929    2.221754114687
