14

 P   -1.331447042685    1.553363272396   -0.803826684203
 O   -1.918447042685    2.603363272396    0.151173315797
 O   -1.597447042685    1.601363272396   -2.315826684203
 O    0.331552957315    1.379363272396   -0.516826684203
 O   -1.646447042685   -0.004636727604   -0.211826684203
 C    1.068552957315    2.544363272396   -0.893826684203
 H    0.737552957315    3.427363272396   -0.317826684203
 H    0.953552957315    2.755363272396   -1.971826684203
 H    2.128552957315    2.342363272396   -0.673826684203
 C   -3.037447042685   -0.327636727604   -0.261826684203
 H   -3.415447042685   -0.300636727604   -1.299826684203
 H   -3.630447042685    0.371363272396    0.354173315797
 H   -3.147447042685   -1.347636727604    0.138173315797
 K    3.812734133786   -4.395423611944    2.280174219809
