14

 P   -1.342779271123    1.572161835537   -0.812931712519
 O   -1.929779271123    2.622161835537    0.142068287481
 O   -1.608779271123    1.620161835537   -2.324931712519
 O    0.320220728877    1.398161835537   -0.525931712519
 O   -1.657779271123    0.014161835537   -0.220931712519
 C    1.057220728877    2.563161835537   -0.902931712519
 H    0.726220728877    3.446161835537   -0.326931712519
 H    0.942220728877    2.774161835537   -1.980931712519
 H    2.117220728877    2.361161835537   -0.682931712519
 C   -3.048779271123   -0.308838164463   -0.270931712519
 H   -3.426779271123   -0.281838164463   -1.308931712519
 H   -3.641779271123    0.390161835537    0.345068287481
 H   -3.158779271123   -1.328838164463    0.129068287481
 K    3.849089318725   -4.455731718451    2.309384272370
