14

 P   -1.365443727998    1.609758961819   -0.831141769151
 O   -1.952443727998    2.659758961819    0.123858230849
 O   -1.631443727998    1.657758961819   -2.343141769151
 O    0.297556272002    1.435758961819   -0.544141769151
 O   -1.680443727998    0.051758961819   -0.239141769151
 C    1.034556272002    2.600758961819   -0.921141769151
 H    0.703556272002    3.483758961819   -0.345141769151
 H    0.919556272002    2.811758961819   -1.999141769151
 H    2.094556272002    2.398758961819   -0.701141769151
 C   -3.071443727998   -0.271241038181   -0.289141769151
 H   -3.449443727998   -0.244241038181   -1.327141769151
 H   -3.664443727998    0.427758961819    0.326858230849
 H   -3.181443727998   -1.291241038181    0.110858230849
 K    3.921799688602   -4.576347931466    2.367804377492
