14

 P   -1.399440413311    1.666154651242   -0.858456854098
 O   -1.986440413311    2.716154651242    0.096543145902
 O   -1.665440413311    1.714154651242   -2.370456854098
 O    0.263559586689    1.492154651242   -0.571456854098
 O   -1.714440413311    0.108154651242   -0.266456854098
 C    1.000559586689    2.657154651242   -0.948456854098
 H    0.669559586689    3.540154651242   -0.372456854098
 H    0.885559586689    2.868154651242   -2.026456854098
 H    2.060559586689    2.455154651242   -0.728456854098
 C   -3.105440413311   -0.214845348758   -0.316456854098
 H   -3.483440413311   -0.187845348758   -1.354456854098
 H   -3.698440413311    0.484154651242    0.299543145902
 H   -3.215440413311   -1.234845348758    0.083543145902
 K    4.030865243418   -4.757272250988    2.455434535175
