14

 P   -1.410772641748    1.684953214384   -0.867561882414
 O   -1.997772641748    2.734953214384    0.087438117586
 O   -1.676772641748    1.732953214384   -2.379561882414
 O    0.252227358252    1.510953214384   -0.580561882414
 O   -1.725772641748    0.126953214384   -0.275561882414
 C    0.989227358252    2.675953214384   -0.957561882414
 H    0.658227358252    3.558953214384   -0.381561882414
 H    0.874227358252    2.886953214384   -2.035561882414
 H    2.049227358252    2.473953214384   -0.737561882414
 C   -3.116772641748   -0.196046785616   -0.325561882414
 H   -3.494772641748   -0.169046785616   -1.363561882414
 H   -3.709772641748    0.502953214384    0.290438117586
 H   -3.226772641748   -1.216046785616    0.074438117586
 K    4.067220428357   -4.817580357495    2.484644587736
