14

 P   -1.433437098623    1.722550340666   -0.885771939046
 O   -2.020437098623    2.772550340666    0.069228060954
 O   -1.699437098623    1.770550340666   -2.397771939046
 O    0.229562901377    1.548550340666   -0.598771939046
 O   -1.748437098623    0.164550340666   -0.293771939046
 C    0.966562901377    2.713550340666   -0.975771939046
 H    0.635562901377    3.596550340666   -0.399771939046
 H    0.851562901377    2.924550340666   -2.053771939046
 H    2.026562901377    2.511550340666   -0.755771939046
 C   -3.139437098623   -0.158449659334   -0.343771939046
 H   -3.517437098623   -0.131449659334   -1.381771939046
 H   -3.732437098623    0.540550340666    0.272228060954
 H   -3.249437098623   -1.178449659334    0.056228060954
 K    4.139930798235   -4.938196570510    2.543064692858
