14

 P   -1.501430469249    1.835341719512   -0.940402108941
 O   -2.088430469249    2.885341719512    0.014597891059
 O   -1.767430469249    1.883341719512   -2.452402108941
 O    0.161569530751    1.661341719512   -0.653402108941
 O   -1.816430469249    0.277341719512   -0.348402108941
 C    0.898569530751    2.826341719512   -1.030402108941
 H    0.567569530751    3.709341719512   -0.454402108941
 H    0.783569530751    3.037341719512   -2.108402108941
 H    1.958569530751    2.624341719512   -0.810402108941
 C   -3.207430469249   -0.045658280488   -0.398402108941
 H   -3.585430469249   -0.018658280488   -1.436402108941
 H   -3.800430469249    0.653341719512    0.217597891059
 H   -3.317430469249   -1.065658280488    0.001597891059
 K    4.358061907867   -5.300045209554    2.718325008224
