14

 P   -1.569423839874    1.948133098359   -0.995032278836
 O   -2.156423839874    2.998133098359   -0.040032278836
 O   -1.835423839874    1.996133098359   -2.507032278836
 O    0.093576160126    1.774133098359   -0.708032278836
 O   -1.884423839874    0.390133098359   -0.403032278836
 C    0.830576160126    2.939133098359   -1.085032278836
 H    0.499576160126    3.822133098359   -0.509032278836
 H    0.715576160126    3.150133098359   -2.163032278836
 H    1.890576160126    2.737133098359   -0.865032278836
 C   -3.275423839874    0.067133098359   -0.453032278836
 H   -3.653423839874    0.094133098359   -1.491032278836
 H   -3.868423839874    0.766133098359    0.162967721164
 H   -3.385423839874   -0.952866901641   -0.053032278836
 K    4.576193017500   -5.661893848599    2.893585323591
