14

 P   -1.580756068312    1.966931661500   -1.004137307151
 O   -2.167756068312    3.016931661500   -0.049137307151
 O   -1.846756068312    2.014931661500   -2.516137307151
 O    0.082243931688    1.792931661500   -0.717137307151
 O   -1.895756068312    0.408931661500   -0.412137307151
 C    0.819243931688    2.957931661500   -1.094137307151
 H    0.488243931688    3.840931661500   -0.518137307151
 H    0.704243931688    3.168931661500   -2.172137307151
 H    1.879243931688    2.755931661500   -0.874137307151
 C   -3.286756068312    0.085931661500   -0.462137307151
 H   -3.664756068312    0.112931661500   -1.500137307151
 H   -3.879756068312    0.784931661500    0.153862692849
 H   -3.396756068312   -0.934068338500   -0.062137307151
 K    4.612548202439   -5.722201955106    2.922795376152
