14

 H    0.092264354967    3.538202590741    0.000000000000
 H    1.639524354967    3.391232590741    0.903060000000
 H    1.639524354967    3.391232590741   -0.903060000000
 C    1.095694354967    3.094882590741    0.000000000000
 S    0.850664354967    1.267222590741    0.000000000000
 H    2.151944354967    0.899542590741    0.000000000000
NA   -0.149815645033   -0.223177409259    2.508440000000
NA   -0.149815645033   -0.223177409259   -2.508440000000
 S   -0.707166451748   -1.053454518575    0.000000000000
 H   -2.008440032047   -0.685778033580    0.000000000000
 C   -0.952191714678   -2.881112993407    0.000000000000
 H    0.051238869765   -3.324436872985    0.000000000000
 H   -1.496025250685   -3.177467610413   -0.903055771806
 H   -1.496025250685   -3.177467610413    0.903055771806
