14

 H    0.167637038864    3.650484143676    0.000000000000
 H    1.714897038864    3.503514143676    0.903060000000
 H    1.714897038864    3.503514143676   -0.903060000000
 C    1.171067038864    3.207164143676    0.000000000000
 S    0.926037038864    1.379504143676    0.000000000000
 H    2.227317038864    1.011824143676    0.000000000000
NA   -0.074442961136   -0.110895856324    2.508440000000
NA   -0.074442961136   -0.110895856324   -2.508440000000
 S   -0.854734090538   -1.273283809366    0.000000000000
 H   -2.156007670836   -0.905607324371    0.000000000000
 C   -1.099759353467   -3.100942284199    0.000000000000
 H   -0.096328769024   -3.544266163777    0.000000000000
 H   -1.643592889474   -3.397296901205   -0.903055771806
 H   -1.643592889474   -3.397296901205    0.903055771806
