14

 H    0.186480209838    3.678554531910    0.000000000000
 H    1.733740209838    3.531584531910    0.903060000000
 H    1.733740209838    3.531584531910   -0.903060000000
 C    1.189910209838    3.235234531910    0.000000000000
 S    0.944880209838    1.407574531910    0.000000000000
 H    2.246160209838    1.039894531910    0.000000000000
NA   -0.055599790162   -0.082825468090    2.508440000000
NA   -0.055599790162   -0.082825468090   -2.508440000000
 S   -0.891626000235   -1.328241132064    0.000000000000
 H   -2.192899580533   -0.960564647069    0.000000000000
 C   -1.136651263164   -3.155899606896    0.000000000000
 H   -0.133220678721   -3.599223486475    0.000000000000
 H   -1.680484799172   -3.452254223903   -0.903055771806
 H   -1.680484799172   -3.452254223903    0.903055771806
