14

 H    0.205323380812    3.706624920143    0.000000000000
 H    1.752583380812    3.559654920143    0.903060000000
 H    1.752583380812    3.559654920143   -0.903060000000
 C    1.208753380812    3.263304920143    0.000000000000
 S    0.963723380812    1.435644920143    0.000000000000
 H    2.265003380812    1.067964920143    0.000000000000
NA   -0.036756619188   -0.054755079857    2.508440000000
NA   -0.036756619188   -0.054755079857   -2.508440000000
 S   -0.928517909932   -1.383198454762    0.000000000000
 H   -2.229791490230   -1.015521969767    0.000000000000
 C   -1.173543172861   -3.210856929594    0.000000000000
 H   -0.170112588418   -3.654180809173    0.000000000000
 H   -1.717376708869   -3.507211546601   -0.903055771806
 H   -1.717376708869   -3.507211546601    0.903055771806
