14

 H    0.318382406658    3.875047249545    0.000000000000
 H    1.865642406658    3.728077249545    0.903060000000
 H    1.865642406658    3.728077249545   -0.903060000000
 C    1.321812406658    3.431727249545    0.000000000000
 S    1.076782406658    1.604067249545    0.000000000000
 H    2.378062406658    1.236387249545    0.000000000000
NA    0.076302406658    0.113667249545    2.508440000000
NA    0.076302406658    0.113667249545   -2.508440000000
 S   -1.149869368116   -1.712942390950    0.000000000000
 H   -2.451142948414   -1.345265905955    0.000000000000
 C   -1.394894631045   -3.540600865782    0.000000000000
 H   -0.391464046602   -3.983924745360    0.000000000000
 H   -1.938728167053   -3.836955482788   -0.903055771806
 H   -1.938728167053   -3.836955482788    0.903055771806
