14

 H    0.337225577632    3.903117637779    0.000000000000
 H    1.884485577632    3.756147637779    0.903060000000
 H    1.884485577632    3.756147637779   -0.903060000000
 C    1.340655577632    3.459797637779    0.000000000000
 S    1.095625577632    1.632137637779    0.000000000000
 H    2.396905577632    1.264457637779    0.000000000000
NA    0.095145577632    0.141737637779    2.508440000000
NA    0.095145577632    0.141737637779   -2.508440000000
 S   -1.186761277813   -1.767899713648    0.000000000000
 H   -2.488034858111   -1.400223228653    0.000000000000
 C   -1.431786540742   -3.595558188480    0.000000000000
 H   -0.428355956299   -4.038882068058    0.000000000000
 H   -1.975620076750   -3.891912805486   -0.903055771806
 H   -1.975620076750   -3.891912805486    0.903055771806
