14

 H    0.356068748606    3.931188026013    0.000000000000
 H    1.903328748606    3.784218026013    0.903060000000
 H    1.903328748606    3.784218026013   -0.903060000000
 C    1.359498748606    3.487868026013    0.000000000000
 S    1.114468748606    1.660208026013    0.000000000000
 H    2.415748748606    1.292528026013    0.000000000000
NA    0.113988748606    0.169808026013    2.508440000000
NA    0.113988748606    0.169808026013   -2.508440000000
 S   -1.223653187510   -1.822857036345    0.000000000000
 H   -2.524926767808   -1.455180551351    0.000000000000
 C   -1.468678450439   -3.650515511178    0.000000000000
 H   -0.465247865996   -4.093839390756    0.000000000000
 H   -2.012511986447   -3.946870128184   -0.903055771806
 H   -2.012511986447   -3.946870128184    0.903055771806
