14

 H    0.412598261529    4.015399190714    0.000000000000
 H    1.959858261529    3.868429190714    0.903060000000
 H    1.959858261529    3.868429190714   -0.903060000000
 C    1.416028261529    3.572079190714    0.000000000000
 S    1.170998261529    1.744419190714    0.000000000000
 H    2.472278261529    1.376739190714    0.000000000000
NA    0.170518261529    0.254019190714    2.508440000000
NA    0.170518261529    0.254019190714   -2.508440000000
 S   -1.334328916602   -1.987729004439    0.000000000000
 H   -2.635602496900   -1.620052519444    0.000000000000
 C   -1.579354179531   -3.815387479272    0.000000000000
 H   -0.575923595088   -4.258711358850    0.000000000000
 H   -2.123187715539   -4.111742096278   -0.903055771806
 H   -2.123187715539   -4.111742096278    0.903055771806
