14

 H    0.450284603477    4.071539967181    0.000000000000
 H    1.997544603477    3.924569967181    0.903060000000
 H    1.997544603477    3.924569967181   -0.903060000000
 C    1.453714603477    3.628219967181    0.000000000000
 S    1.208684603477    1.800559967181    0.000000000000
 H    2.509964603477    1.432879967181    0.000000000000
NA    0.208204603477    0.310159967181    2.508440000000
NA    0.208204603477    0.310159967181   -2.508440000000
 S   -1.408112735997   -2.097643649835    0.000000000000
 H   -2.709386316295   -1.729967164840    0.000000000000
 C   -1.653137998926   -3.925302124667    0.000000000000
 H   -0.649707414483   -4.368626004246    0.000000000000
 H   -2.196971534934   -4.221656741674   -0.903055771806
 H   -2.196971534934   -4.221656741674    0.903055771806
