14

 H    0.469127774452    4.099610355415    0.000000000000
 H    2.016387774452    3.952640355415    0.903060000000
 H    2.016387774452    3.952640355415   -0.903060000000
 C    1.472557774452    3.656290355415    0.000000000000
 S    1.227527774452    1.828630355415    0.000000000000
 H    2.528807774452    1.460950355415    0.000000000000
NA    0.227047774452    0.338230355415    2.508440000000
NA    0.227047774452    0.338230355415   -2.508440000000
 S   -1.445004645694   -2.152600972533    0.000000000000
 H   -2.746278225992   -1.784924487538    0.000000000000
 C   -1.690029908623   -3.980259447365    0.000000000000
 H   -0.686599324180   -4.423583326944    0.000000000000
 H   -2.233863444631   -4.276614064372   -0.903055771806
 H   -2.233863444631   -4.276614064372    0.903055771806
