14

 H    0.506814116400    4.155751131882    0.000000000000
 H    2.054074116400    4.008781131882    0.903060000000
 H    2.054074116400    4.008781131882   -0.903060000000
 C    1.510244116400    3.712431131882    0.000000000000
 S    1.265214116400    1.884771131882    0.000000000000
 H    2.566494116400    1.517091131882    0.000000000000
NA    0.264734116400    0.394371131882    2.508440000000
NA    0.264734116400    0.394371131882   -2.508440000000
 S   -1.518788465089   -2.262515617929    0.000000000000
 H   -2.820062045387   -1.894839132934    0.000000000000
 C   -1.763813728018   -4.090174092761    0.000000000000
 H   -0.760383143575   -4.533497972340    0.000000000000
 H   -2.307647264025   -4.386528709768   -0.903055771806
 H   -2.307647264025   -4.386528709768    0.903055771806
