14

 H    0.544500458349    4.211891908349    0.000000000000
 H    2.091760458349    4.064921908349    0.903060000000
 H    2.091760458349    4.064921908349   -0.903060000000
 C    1.547930458349    3.768571908349    0.000000000000
 S    1.302900458349    1.940911908349    0.000000000000
 H    2.604180458349    1.573231908349    0.000000000000
NA    0.302420458349    0.450511908349    2.508440000000
NA    0.302420458349    0.450511908349   -2.508440000000
 S   -1.592572284483   -2.372430263325    0.000000000000
 H   -2.893845864781   -2.004753778330    0.000000000000
 C   -1.837597547412   -4.200088738157    0.000000000000
 H   -0.834166962969   -4.643412617735    0.000000000000
 H   -2.381431083420   -4.496443355164   -0.903055771806
 H   -2.381431083420   -4.496443355164    0.903055771806
