14

 H    0.638716313220    4.352243849518    0.000000000000
 H    2.185976313220    4.205273849518    0.903060000000
 H    2.185976313220    4.205273849518   -0.903060000000
 C    1.642146313220    3.908923849518    0.000000000000
 S    1.397116313220    2.081263849518    0.000000000000
 H    2.698396313220    1.713583849518    0.000000000000
NA    0.396636313220    0.590863849518    2.508440000000
NA    0.396636313220    0.590863849518   -2.508440000000
 S   -1.777031832969   -2.647216876814    0.000000000000
 H   -3.078305413268   -2.279540391820    0.000000000000
 C   -2.022057095899   -4.474875351647    0.000000000000
 H   -1.018626511456   -4.918199231225    0.000000000000
 H   -2.565890631906   -4.771229968653   -0.903055771806
 H   -2.565890631906   -4.771229968653    0.903055771806
