14

 H    0.657559484194    4.380314237751    0.000000000000
 H    2.204819484194    4.233344237751    0.903060000000
 H    2.204819484194    4.233344237751   -0.903060000000
 C    1.660989484194    3.936994237751    0.000000000000
 S    1.415959484194    2.109334237751    0.000000000000
 H    2.717239484194    1.741654237751    0.000000000000
NA    0.415479484194    0.618934237751    2.508440000000
NA    0.415479484194    0.618934237751   -2.508440000000
 S   -1.813923742667   -2.702174199512    0.000000000000
 H   -3.115197322965   -2.334497714517    0.000000000000
 C   -2.058949005596   -4.529832674345    0.000000000000
 H   -1.055518421153   -4.973156553923    0.000000000000
 H   -2.602782541604   -4.826187291351   -0.903055771806
 H   -2.602782541604   -4.826187291351    0.903055771806
