14

 H    0.695245826143    4.436455014219    0.000000000000
 H    2.242505826143    4.289485014219    0.903060000000
 H    2.242505826143    4.289485014219   -0.903060000000
 C    1.698675826143    3.993135014219    0.000000000000
 S    1.453645826143    2.165475014219    0.000000000000
 H    2.754925826143    1.797795014219    0.000000000000
NA    0.453165826143    0.675075014219    2.508440000000
NA    0.453165826143    0.675075014219   -2.508440000000
 S   -1.887707562061   -2.812088844908    0.000000000000
 H   -3.188981142359   -2.444412359913    0.000000000000
 C   -2.132732824990   -4.639747319740    0.000000000000
 H   -1.129302240547   -5.083071199319    0.000000000000
 H   -2.676566360998   -4.936101936747   -0.903055771806
 H   -2.676566360998   -4.936101936747    0.903055771806
