14

 H    0.732932168091    4.492595790686    0.000000000000
 H    2.280192168091    4.345625790686    0.903060000000
 H    2.280192168091    4.345625790686   -0.903060000000
 C    1.736362168091    4.049275790686    0.000000000000
 S    1.491332168091    2.221615790686    0.000000000000
 H    2.792612168091    1.853935790686    0.000000000000
NA    0.490852168091    0.731215790686    2.508440000000
NA    0.490852168091    0.731215790686   -2.508440000000
 S   -1.961491381456   -2.922003490304    0.000000000000
 H   -3.262764961754   -2.554327005309    0.000000000000
 C   -2.206516644385   -4.749661965136    0.000000000000
 H   -1.203086059942   -5.192985844715    0.000000000000
 H   -2.750350180393   -5.046016582143   -0.903055771806
 H   -2.750350180393   -5.046016582143    0.903055771806
