14

 H    0.751775339065    4.520666178919    0.000000000000
 H    2.299035339065    4.373696178919    0.903060000000
 H    2.299035339065    4.373696178919   -0.903060000000
 C    1.755205339065    4.077346178919    0.000000000000
 S    1.510175339065    2.249686178919    0.000000000000
 H    2.811455339065    1.882006178919    0.000000000000
NA    0.509695339065    0.759286178919    2.508440000000
NA    0.509695339065    0.759286178919   -2.508440000000
 S   -1.998383291153   -2.976960813002    0.000000000000
 H   -3.299656871451   -2.609284328007    0.000000000000
 C   -2.243408554082   -4.804619287834    0.000000000000
 H   -1.239977969639   -5.247943167413    0.000000000000
 H   -2.787242090090   -5.100973904841   -0.903055771806
 H   -2.787242090090   -5.100973904841    0.903055771806
