14

 H    0.921363877833    4.773299673022    0.000000000000
 H    2.468623877833    4.626329673022    0.903060000000
 H    2.468623877833    4.626329673022   -0.903060000000
 C    1.924793877833    4.329979673022    0.000000000000
 S    1.679763877833    2.502319673022    0.000000000000
 H    2.981043877833    2.134639673022    0.000000000000
NA    0.679283877833    1.011919673022    2.508440000000
NA    0.679283877833    1.011919673022   -2.508440000000
 S   -2.330410478429   -3.471576717283    0.000000000000
 H   -3.631684058727   -3.103900232288    0.000000000000
 C   -2.575435741358   -5.299235192116    0.000000000000
 H   -1.572005156915   -5.742559071694    0.000000000000
 H   -3.119269277365   -5.595589809122   -0.903055771806
 H   -3.119269277365   -5.595589809122    0.903055771806
