14

 H    0.940207048808    4.801370061256    0.000000000000
 H    2.487467048808    4.654400061256    0.903060000000
 H    2.487467048808    4.654400061256   -0.903060000000
 C    1.943637048808    4.358050061256    0.000000000000
 S    1.698607048808    2.530390061256    0.000000000000
 H    2.999887048808    2.162710061256    0.000000000000
NA    0.698127048808    1.039990061256    2.508440000000
NA    0.698127048808    1.039990061256   -2.508440000000
 S   -2.367302388126   -3.526534039981    0.000000000000
 H   -3.668575968424   -3.158857554986    0.000000000000
 C   -2.612327651055   -5.354192514814    0.000000000000
 H   -1.608897066612   -5.797516394392    0.000000000000
 H   -3.156161187063   -5.650547131820   -0.903055771806
 H   -3.156161187063   -5.650547131820    0.903055771806
