14

 H    0.959050219782    4.829440449490    0.000000000000
 H    2.506310219782    4.682470449490    0.903060000000
 H    2.506310219782    4.682470449490   -0.903060000000
 C    1.962480219782    4.386120449490    0.000000000000
 S    1.717450219782    2.558460449490    0.000000000000
 H    3.018730219782    2.190780449490    0.000000000000
NA    0.716970219782    1.068060449490    2.508440000000
NA    0.716970219782    1.068060449490   -2.508440000000
 S   -2.404194297823   -3.581491362679    0.000000000000
 H   -3.705467878121   -3.213814877684    0.000000000000
 C   -2.649219560752   -5.409149837511    0.000000000000
 H   -1.645788976309   -5.852473717090    0.000000000000
 H   -3.193053096760   -5.705504454518   -0.903055771806
 H   -3.193053096760   -5.705504454518    0.903055771806
