14

 H    1.034422903679    4.941722002424    0.000000000000
 H    2.581682903679    4.794752002424    0.903060000000
 H    2.581682903679    4.794752002424   -0.903060000000
 C    2.037852903679    4.498402002424    0.000000000000
 S    1.792822903679    2.670742002424    0.000000000000
 H    3.094102903679    2.303062002424    0.000000000000
NA    0.792342903679    1.180342002424    2.508440000000
NA    0.792342903679    1.180342002424   -2.508440000000
 S   -2.551761936612   -3.801320653471    0.000000000000
 H   -3.853035516910   -3.433644168476    0.000000000000
 C   -2.796787199541   -5.628979128303    0.000000000000
 H   -1.793356615098   -6.072303007881    0.000000000000
 H   -3.340620735549   -5.925333745310   -0.903055771806
 H   -3.340620735549   -5.925333745310    0.903055771806
