14

 H    1.053266074653    4.969792390658    0.000000000000
 H    2.600526074653    4.822822390658    0.903060000000
 H    2.600526074653    4.822822390658   -0.903060000000
 C    2.056696074653    4.526472390658    0.000000000000
 S    1.811666074653    2.698812390658    0.000000000000
 H    3.112946074653    2.331132390658    0.000000000000
NA    0.811186074653    1.208412390658    2.508440000000
NA    0.811186074653    1.208412390658   -2.508440000000
 S   -2.588653846310   -3.856277976169    0.000000000000
 H   -3.889927426608   -3.488601491174    0.000000000000
 C   -2.833679109239   -5.683936451001    0.000000000000
 H   -1.830248524796   -6.127260330579    0.000000000000
 H   -3.377512645246   -5.980291068008   -0.903055771806
 H   -3.377512645246   -5.980291068008    0.903055771806
