14

 H    1.090952416602    5.025933167125    0.000000000000
 H    2.638212416602    4.878963167125    0.903060000000
 H    2.638212416602    4.878963167125   -0.903060000000
 C    2.094382416602    4.582613167125    0.000000000000
 S    1.849352416602    2.754953167125    0.000000000000
 H    3.150632416602    2.387273167125    0.000000000000
NA    0.848872416602    1.264553167125    2.508440000000
NA    0.848872416602    1.264553167125   -2.508440000000
 S   -2.662437665704   -3.966192621565    0.000000000000
 H   -3.963711246002   -3.598516136570    0.000000000000
 C   -2.907462928633   -5.793851096397    0.000000000000
 H   -1.904032344190   -6.237174975975    0.000000000000
 H   -3.451296464641   -6.090205713403   -0.903055771806
 H   -3.451296464641   -6.090205713403    0.903055771806
