14

 H    1.185168271473    5.166285108294    0.000000000000
 H    2.732428271473    5.019315108294    0.903060000000
 H    2.732428271473    5.019315108294   -0.903060000000
 C    2.188598271473    4.722965108294    0.000000000000
 S    1.943568271473    2.895305108294    0.000000000000
 H    3.244848271473    2.527625108294    0.000000000000
NA    0.943088271473    1.404905108294    2.508440000000
NA    0.943088271473    1.404905108294   -2.508440000000
 S   -2.846897214190   -4.240979235054    0.000000000000
 H   -4.148170794489   -3.873302750059    0.000000000000
 C   -3.091922477120   -6.068637709887    0.000000000000
 H   -2.088491892677   -6.511961589465    0.000000000000
 H   -3.635756013127   -6.364992326893   -0.903055771806
 H   -3.635756013127   -6.364992326893    0.903055771806
