14

 H    1.260540955370    5.278566661228    0.000000000000
 H    2.807800955370    5.131596661228    0.903060000000
 H    2.807800955370    5.131596661228   -0.903060000000
 C    2.263970955370    4.835246661228    0.000000000000
 S    2.018940955370    3.007586661228    0.000000000000
 H    3.320220955370    2.639906661228    0.000000000000
NA    1.018460955370    1.517186661228    2.508440000000
NA    1.018460955370    1.517186661228   -2.508440000000
 S   -2.994464852980   -4.460808525846    0.000000000000
 H   -4.295738433278   -4.093132040851    0.000000000000
 C   -3.239490115909   -6.288467000678    0.000000000000
 H   -2.236059531466   -6.731790880257    0.000000000000
 H   -3.783323651916   -6.584821617685   -0.903055771806
 H   -3.783323651916   -6.584821617685    0.903055771806
