14

 H    1.298227297318    5.334707437696    0.000000000000
 H    2.845487297318    5.187737437696    0.903060000000
 H    2.845487297318    5.187737437696   -0.903060000000
 C    2.301657297318    4.891387437696    0.000000000000
 S    2.056627297318    3.063727437696    0.000000000000
 H    3.357907297318    2.696047437696    0.000000000000
NA    1.056147297318    1.573327437696    2.508440000000
NA    1.056147297318    1.573327437696   -2.508440000000
 S   -3.068248672374   -4.570723171242    0.000000000000
 H   -4.369522252672   -4.203046686247    0.000000000000
 C   -3.313273935303   -6.398381646074    0.000000000000
 H   -2.309843350860   -6.841705525652    0.000000000000
 H   -3.857107471311   -6.694736263081   -0.903055771806
 H   -3.857107471311   -6.694736263081    0.903055771806
