14

 H    1.335913639267    5.390848214163    0.000000000000
 H    2.883173639267    5.243878214163    0.903060000000
 H    2.883173639267    5.243878214163   -0.903060000000
 C    2.339343639267    4.947528214163    0.000000000000
 S    2.094313639267    3.119868214163    0.000000000000
 H    3.395593639267    2.752188214163    0.000000000000
NA    1.093833639267    1.629468214163    2.508440000000
NA    1.093833639267    1.629468214163   -2.508440000000
 S   -3.142032491769   -4.680637816638    0.000000000000
 H   -4.443306072067   -4.312961331643    0.000000000000
 C   -3.387057754698   -6.508296291470    0.000000000000
 H   -2.383627170255   -6.951620171048    0.000000000000
 H   -3.930891290706   -6.804650908476   -0.903055771806
 H   -3.930891290706   -6.804650908476    0.903055771806
