14

 H    1.467815836087    5.587340931799    0.000000000000
 H    3.015075836087    5.440370931799    0.903060000000
 H    3.015075836087    5.440370931799   -0.903060000000
 C    2.471245836087    5.144020931799    0.000000000000
 S    2.226215836087    3.316360931799    0.000000000000
 H    3.527495836087    2.948680931799    0.000000000000
NA    1.225735836087    1.825960931799    2.508440000000
NA    1.225735836087    1.825960931799   -2.508440000000
 S   -3.400275859650   -5.065339075523    0.000000000000
 H   -4.701549439948   -4.697662590528    0.000000000000
 C   -3.645301122579   -6.892997550355    0.000000000000
 H   -2.641870538136   -7.336321429934    0.000000000000
 H   -4.189134658586   -7.189352167362   -0.903055771806
 H   -4.189134658586   -7.189352167362    0.903055771806
