14

 H    1.486659007061    5.615411320032    0.000000000000
 H    3.033919007061    5.468441320032    0.903060000000
 H    3.033919007061    5.468441320032   -0.903060000000
 C    2.490089007061    5.172091320032    0.000000000000
 S    2.245059007061    3.344431320032    0.000000000000
 H    3.546339007061    2.976751320032    0.000000000000
NA    1.244579007061    1.854031320032    2.508440000000
NA    1.244579007061    1.854031320032   -2.508440000000
 S   -3.437167769347   -5.120296398221    0.000000000000
 H   -4.738441349645   -4.752619913226    0.000000000000
 C   -3.682193032276   -6.947954873053    0.000000000000
 H   -2.678762447833   -7.391278752632    0.000000000000
 H   -4.226026568284   -7.244309490060   -0.903055771806
 H   -4.226026568284   -7.244309490060    0.903055771806
