14

 H    1.543188519984    5.699622484733    0.000000000000
 H    3.090448519984    5.552652484733    0.903060000000
 H    3.090448519984    5.552652484733   -0.903060000000
 C    2.546618519984    5.256302484733    0.000000000000
 S    2.301588519984    3.428642484733    0.000000000000
 H    3.602868519984    3.060962484733    0.000000000000
NA    1.301108519984    1.938242484733    2.508440000000
NA    1.301108519984    1.938242484733   -2.508440000000
 S   -3.547843498439   -5.285168366315    0.000000000000
 H   -4.849117078737   -4.917491881320    0.000000000000
 C   -3.792868761368   -7.112826841147    0.000000000000
 H   -2.789438176925   -7.556150720725    0.000000000000
 H   -4.336702297376   -7.409181458154   -0.903055771806
 H   -4.336702297376   -7.409181458154    0.903055771806
