14

 H    1.675090716803    5.896115202369    0.000000000000
 H    3.222350716803    5.749145202369    0.903060000000
 H    3.222350716803    5.749145202369   -0.903060000000
 C    2.678520716803    5.452795202369    0.000000000000
 S    2.433490716803    3.625135202369    0.000000000000
 H    3.734770716803    3.257455202369    0.000000000000
NA    1.433010716803    2.134735202369    2.508440000000
NA    1.433010716803    2.134735202369   -2.508440000000
 S   -3.806086866320   -5.669869625200    0.000000000000
 H   -5.107360446618   -5.302193140205    0.000000000000
 C   -4.051112129249   -7.497528100033    0.000000000000
 H   -3.047681544806   -7.940851979611    0.000000000000
 H   -4.594945665257   -7.793882717039   -0.903055771806
 H   -4.594945665257   -7.793882717039    0.903055771806
