14

 H    1.712777058752    5.952255978836    0.000000000000
 H    3.260037058752    5.805285978836    0.903060000000
 H    3.260037058752    5.805285978836   -0.903060000000
 C    2.716207058752    5.508935978836    0.000000000000
 S    2.471177058752    3.681275978836    0.000000000000
 H    3.772457058752    3.313595978836    0.000000000000
NA    1.470697058752    2.190875978836    2.508440000000
NA    1.470697058752    2.190875978836   -2.508440000000
 S   -3.879870685714   -5.779784270596    0.000000000000
 H   -5.181144266012   -5.412107785601    0.000000000000
 C   -4.124895948643   -7.607442745428    0.000000000000
 H   -3.121465364200   -8.050766625007    0.000000000000
 H   -4.668729484651   -7.903797362435   -0.903055771806
 H   -4.668729484651   -7.903797362435    0.903055771806
