14

 H    1.731620229726    5.980326367070    0.000000000000
 H    3.278880229726    5.833356367070    0.903060000000
 H    3.278880229726    5.833356367070   -0.903060000000
 C    2.735050229726    5.537006367070    0.000000000000
 S    2.490020229726    3.709346367070    0.000000000000
 H    3.791300229726    3.341666367070    0.000000000000
NA    1.489540229726    2.218946367070    2.508440000000
NA    1.489540229726    2.218946367070   -2.508440000000
 S   -3.916762595411   -5.834741593294    0.000000000000
 H   -5.218036175710   -5.467065108299    0.000000000000
 C   -4.161787858341   -7.662400068126    0.000000000000
 H   -3.158357273898   -8.105723947705    0.000000000000
 H   -4.705621394348   -7.958754685133   -0.903055771806
 H   -4.705621394348   -7.958754685133    0.903055771806
