14

 H    1.769306571674    6.036467143537    0.000000000000
 H    3.316566571674    5.889497143537    0.903060000000
 H    3.316566571674    5.889497143537   -0.903060000000
 C    2.772736571674    5.593147143537    0.000000000000
 S    2.527706571674    3.765487143537    0.000000000000
 H    3.828986571674    3.397807143537    0.000000000000
NA    1.527226571674    2.275087143537    2.508440000000
NA    1.527226571674    2.275087143537   -2.508440000000
 S   -3.990546414806   -5.944656238690    0.000000000000
 H   -5.291819995104   -5.576979753695    0.000000000000
 C   -4.235571677735   -7.772314713522    0.000000000000
 H   -3.232141093292   -8.215638593101    0.000000000000
 H   -4.779405213743   -8.068669330529   -0.903055771806
 H   -4.779405213743   -8.068669330529    0.903055771806
