14

 N    0.864311036790    1.301630735982   -0.002451964883
 C   -0.221135906113    2.124389705810    0.000689906338
 H   -0.029615066231    3.199446678309   -0.001814692204
 C    0.782447316108   -0.117639725744   -0.001434295999
 O    1.826190563426   -0.770881615805   -0.003915137311
 N   -0.491390772573   -0.659779357337    0.009178938131
 C   -1.549076885386    0.141572673538    0.006685893303
 N   -2.781070001842   -0.462226355542   -0.038719929906
 H   -2.790004470163   -1.461920242053    0.130850678659
 H   -3.599647746045    0.064201963858    0.236180194891
 C   -1.480494886952    1.582949512733    0.003202459637
 H   -2.369018602637    2.214267103977   -0.006279494390
 H    1.808251159717    1.676278948424   -0.005757861111
NA    1.790601480768   -1.770230881630    0.001955304784
