14

 N    0.865531907187    1.335913045154   -0.002653348241
 C   -0.219915035716    2.158672014982    0.000488522980
 H   -0.028394195834    3.233728987481   -0.002016075562
 C    0.783668186505   -0.083357416572   -0.001635679357
 O    1.827411433823   -0.736599306633   -0.004116520669
 N   -0.490169902176   -0.625497048165    0.008977554773
 C   -1.547856014989    0.175854982710    0.006484509945
 N   -2.779849131445   -0.427944046370   -0.038921313264
 H   -2.788783599766   -1.427637932881    0.130649295301
 H   -3.598426875648    0.098484273030    0.235978811533
 C   -1.479274016555    1.617231821905    0.003001076279
 H   -2.367797732240    2.248549413149   -0.006480877748
 H    1.809472030114    1.710561257596   -0.005959244469
NA    1.784704534633   -1.935818425623    0.002928009845
