14

 N    0.866752777583    1.370195354327   -0.002854731599
 C   -0.218694165320    2.192954324155    0.000287139622
 H   -0.027173325438    3.268011296654   -0.002217458920
 C    0.784889056901   -0.049075107399   -0.001837062715
 O    1.828632304219   -0.702316997460   -0.004317904027
 N   -0.488949031780   -0.591214738992    0.008776171415
 C   -1.546635144593    0.210137291883    0.006283126587
 N   -2.778628261049   -0.393661737197   -0.039122696622
 H   -2.787562729370   -1.393355623708    0.130447911943
 H   -3.597206005252    0.132766582203    0.235777428175
 C   -1.478053146159    1.651514131078    0.002799692921
 H   -2.366576861844    2.282831722322   -0.006682261106
 H    1.810692900510    1.744843566769   -0.006160627827
NA    1.778807588499   -2.101405969615    0.003900714906
