14

 N    0.867363212782    1.387336508913   -0.002955423278
 C   -0.218083730121    2.210095478741    0.000186447943
 H   -0.026562890239    3.285152451240   -0.002318150599
 C    0.785499492100   -0.031933952813   -0.001937754394
 O    1.829242739418   -0.685175842874   -0.004418595706
 N   -0.488338596581   -0.574073584406    0.008675479736
 C   -1.546024709394    0.227278446469    0.006182434908
 N   -2.778017825850   -0.376520582611   -0.039223388301
 H   -2.786952294171   -1.376214469122    0.130347220264
 H   -3.596595570053    0.149907736789    0.235676736496
 C   -1.477442710960    1.668655285664    0.002699001242
 H   -2.365966426645    2.299972876908   -0.006782952785
 H    1.811303335709    1.761984721355   -0.006261319506
NA    1.775859115431   -2.184199741611    0.004387067437
