14

 N    0.868584083179    1.421618818086   -0.003156806636
 C   -0.216862859724    2.244377787914   -0.000014935415
 H   -0.025342019842    3.319434760413   -0.002519533957
 C    0.786720362497    0.002348356360   -0.002139137752
 O    1.830463609815   -0.650893533701   -0.004619979064
 N   -0.487117726184   -0.539791275233    0.008474096378
 C   -1.544803838997    0.261560755642    0.005981051550
 N   -2.776796955453   -0.342238273438   -0.039424771659
 H   -2.785731423774   -1.341932159949    0.130145836906
 H   -3.595374699656    0.184190045962    0.235475353138
 C   -1.476221840563    1.702937594837    0.002497617884
 H   -2.364745556248    2.334255186081   -0.006984336143
 H    1.812524206106    1.796267030528   -0.006462702864
NA    1.769962169297   -2.349787285604    0.005359772498
