14

 N    0.869804953576    1.455901127259   -0.003358189994
 C   -0.215641989327    2.278660097087   -0.000216318773
 H   -0.024121149445    3.353717069586   -0.002720917315
 C    0.787941232894    0.036630665533   -0.002340521110
 O    1.831684480212   -0.616611224528   -0.004821362422
 N   -0.485896855787   -0.505508966060    0.008272713020
 C   -1.543582968600    0.295843064815    0.005779668192
 N   -2.775576085056   -0.307955964265   -0.039626155017
 H   -2.784510553377   -1.307649850776    0.129944453548
 H   -3.594153829259    0.218472355135    0.235273969780
 C   -1.475000970166    1.737219904010    0.002296234526
 H   -2.363524685851    2.368537495254   -0.007185719501
 H    1.813745076503    1.830549339701   -0.006664086222
NA    1.764065223162   -2.515374829596    0.006332477559
