14

 N    0.872857129568    1.541606900190   -0.003861648389
 C   -0.212589813335    2.364365870018   -0.000719777168
 H   -0.021068973453    3.439422842517   -0.003224375710
 C    0.790993408886    0.122336438464   -0.002843979505
 O    1.834736656204   -0.530905451597   -0.005324820817
 N   -0.482844679795   -0.419803193129    0.007769254625
 C   -1.540530792608    0.381548837746    0.005276209797
 N   -2.772523909064   -0.222250191334   -0.040129613412
 H   -2.781458377385   -1.221944077845    0.129440995153
 H   -3.591101653267    0.304178128066    0.234770511385
 C   -1.471948794174    1.822925676941    0.001792776131
 H   -2.360472509859    2.454243268185   -0.007689177896
 H    1.816797252495    1.916255112632   -0.007167544617
NA    1.749322857826   -2.929343689577    0.008764240212
