14

 N    0.874077999965    1.575889209363   -0.004063031747
 C   -0.211368942938    2.398648179191   -0.000921160526
 H   -0.019848103056    3.473705151690   -0.003425759068
 C    0.792214279283    0.156618747637   -0.003045362863
 O    1.835957526601   -0.496623142424   -0.005526204175
 N   -0.481623809398   -0.385520883956    0.007567871267
 C   -1.539309922211    0.415831146919    0.005074826439
 N   -2.771303038667   -0.187967882161   -0.040330996770
 H   -2.780237506988   -1.187661768672    0.129239611795
 H   -3.589880782870    0.338460437239    0.234569128027
 C   -1.470727923777    1.857207986114    0.001591392773
 H   -2.359251639462    2.488525577358   -0.007890561254
 H    1.818018122892    1.950537421805   -0.007368927975
NA    1.743425911691   -3.094931233570    0.009736945273
