14

 N    0.874688435163    1.593030363949   -0.004163723426
 C   -0.210758507740    2.415789333777   -0.001021852205
 H   -0.019237667858    3.490846306276   -0.003526450747
 C    0.792824714481    0.173759902223   -0.003146054542
 O    1.836567961799   -0.479481987838   -0.005626895854
 N   -0.481013374200   -0.368379729370    0.007467179588
 C   -1.538699487013    0.432972301505    0.004974134760
 N   -2.770692603469   -0.170826727575   -0.040431688449
 H   -2.779627071790   -1.170520614086    0.129138920116
 H   -3.589270347672    0.355601591825    0.234468436348
 C   -1.470117488579    1.874349140700    0.001490701094
 H   -2.358641204264    2.505666731944   -0.007991252933
 H    1.818628558090    1.967678576391   -0.007469619654
NA    1.740477438624   -3.177725005566    0.010223297804
