14

 N    0.877740611156    1.678736136881   -0.004667181821
 C   -0.207706331747    2.501495106709   -0.001525310600
 H   -0.016185491865    3.576552079208   -0.004029909142
 C    0.795876890474    0.259465675155   -0.003649512937
 O    1.839620137792   -0.393776214906   -0.006130354249
 N   -0.477961198207   -0.282673956438    0.006963721193
 C   -1.535647311020    0.518678074437    0.004470676365
 N   -2.767640427476   -0.085120954643   -0.040935146844
 H   -2.776574895797   -1.084814841154    0.128635461721
 H   -3.586218171679    0.441307364757    0.233964977953
 C   -1.467065312586    1.960054913632    0.000987242699
 H   -2.355589028271    2.591372504876   -0.008494711328
 H    1.821680734083    2.053384349323   -0.007973078049
NA    1.725735073287   -3.591693865547    0.012655060457
