14

 N    0.878351046354    1.695877291467   -0.004767873499
 C   -0.207095896549    2.518636261295   -0.001626002278
 H   -0.015575056667    3.593693233794   -0.004130600820
 C    0.796487325672    0.276606829741   -0.003750204615
 O    1.840230572990   -0.376635060320   -0.006231045927
 N   -0.477350763009   -0.265532801852    0.006863029515
 C   -1.535036875822    0.535819229023    0.004369984687
 N   -2.767029992278   -0.067979800057   -0.041035838522
 H   -2.775964460599   -1.067673686568    0.128534770043
 H   -3.585607736481    0.458448519343    0.233864286275
 C   -1.466454877388    1.977196068218    0.000886551021
 H   -2.354978593073    2.608513659462   -0.008595403006
 H    1.822291169281    2.070525503909   -0.008073769727
NA    1.722786600220   -3.674487637543    0.013141412987
