14

 N    0.880792787148    1.764441909812   -0.005170640215
 C   -0.204654155755    2.587200879640   -0.002028768994
 H   -0.013133315873    3.662257852139   -0.004533367536
 C    0.798929066466    0.345171448086   -0.004152971331
 O    1.842672313784   -0.308070441975   -0.006633812643
 N   -0.474909022215   -0.196968183507    0.006460262799
 C   -1.532595135028    0.604383847368    0.003967217971
 N   -2.764588251484    0.000584818288   -0.041438605238
 H   -2.773522719805   -0.999109068223    0.128132003327
 H   -3.583165995687    0.527013137688    0.233461519559
 C   -1.464013136594    2.045760686563    0.000483784305
 H   -2.352536852279    2.677078277807   -0.008998169722
 H    1.824732910075    2.139090122254   -0.008476536443
NA    1.710992707951   -4.005662725528    0.015086823110
