14

 N    0.882013657545    1.798724218985   -0.005372023573
 C   -0.203433285358    2.621483188813   -0.002230152352
 H   -0.011912445476    3.696540161312   -0.004734750894
 C    0.800149936863    0.379453757259   -0.004354354689
 O    1.843893184181   -0.273788132802   -0.006835196001
 N   -0.473688151818   -0.162685874334    0.006258879441
 C   -1.531374264631    0.638666156541    0.003765834613
 N   -2.763367381087    0.034867127461   -0.041639988596
 H   -2.772301849408   -0.964826759050    0.127930619969
 H   -3.581945125290    0.561295446861    0.233260136201
 C   -1.462792266197    2.080042995736    0.000282400947
 H   -2.351315981882    2.711360586980   -0.009199553080
 H    1.825953780472    2.173372431427   -0.008677919801
NA    1.705095761816   -4.171250269520    0.016059528171
