14

 N    0.883234527942    1.833006528157   -0.005573406931
 C   -0.202212414961    2.655765497985   -0.002431535710
 H   -0.010691575079    3.730822470484   -0.004936134252
 C    0.801370807260    0.413736066431   -0.004555738047
 O    1.845114054578   -0.239505823630   -0.007036579359
 N   -0.472467281421   -0.128403565162    0.006057496083
 C   -1.530153394234    0.672948465713    0.003564451255
 N   -2.762146510690    0.069149436633   -0.041841371954
 H   -2.771080979011   -0.930544449878    0.127729236611
 H   -3.580724254893    0.595577756033    0.233058752843
 C   -1.461571395800    2.114325304908    0.000081017589
 H   -2.350095111485    2.745642896152   -0.009400936438
 H    1.827174650869    2.207654740599   -0.008879303159
NA    1.699198815682   -4.336837813513    0.017032233232
