14

 N    0.884455398339    1.867288837330   -0.005774790289
 C   -0.200991544564    2.690047807158   -0.002632919068
 H   -0.009470704682    3.765104779657   -0.005137517610
 C    0.802591677657    0.448018375604   -0.004757121405
 O    1.846334924975   -0.205223514457   -0.007237962717
 N   -0.471246411024   -0.094121255989    0.005856112725
 C   -1.528932523837    0.707230774886    0.003363067897
 N   -2.760925640293    0.103431745806   -0.042042755312
 H   -2.769860108614   -0.896262140705    0.127527853253
 H   -3.579503384496    0.629860065206    0.232857369485
 C   -1.460350525403    2.148607614081   -0.000120365769
 H   -2.348874241088    2.779925205325   -0.009602319796
 H    1.828395521266    2.241937049772   -0.009080686517
NA    1.693301869547   -4.502425357505    0.018004938293
