14

 N    0.886897139133    1.935853455675   -0.006177557005
 C   -0.198549803770    2.758612425503   -0.003035685784
 H   -0.007028963888    3.833669398002   -0.005540284326
 C    0.805033418451    0.516582993949   -0.005159888121
 O    1.848776665769   -0.136658896112   -0.007640729433
 N   -0.468804670230   -0.025556637644    0.005453346009
 C   -1.526490783043    0.775795393231    0.002960301181
 N   -2.758483899499    0.171996364151   -0.042445522028
 H   -2.767418367820   -0.827697522360    0.127125086537
 H   -3.577061643702    0.698424683551    0.232454602769
 C   -1.457908784609    2.217172232426   -0.000523132485
 H   -2.346432500294    2.848489823670   -0.010005086512
 H    1.830837262060    2.310501668117   -0.009483453233
NA    1.681507977278   -4.833600445490    0.019950348416
