14

 N    0.889949315125    2.021559228607   -0.006681015400
 C   -0.195497627778    2.844318198435   -0.003539144179
 H   -0.003976787896    3.919375170934   -0.006043742721
 C    0.808085594443    0.602288766881   -0.005663346516
 O    1.851828841761   -0.050953123180   -0.008144187828
 N   -0.465752494238    0.060149135288    0.004949887614
 C   -1.523438607051    0.861501166163    0.002456842786
 N   -2.755431723507    0.257702137083   -0.042948980423
 H   -2.764366191828   -0.741991749428    0.126621628142
 H   -3.574009467710    0.784130456483    0.231951144374
 C   -1.454856608617    2.302878005358   -0.001026590880
 H   -2.343380324302    2.934195596602   -0.010508544907
 H    1.833889438052    2.396207441049   -0.009986911628
NA    1.666765611941   -5.247569305471    0.022382111068
