14

 N    0.891780620721    2.072982692366   -0.006983090437
 C   -0.193666322182    2.895741662194   -0.003841219216
 H   -0.002145482300    3.970798634693   -0.006345817758
 C    0.809916900039    0.653712230640   -0.005965421553
 O    1.853660147357    0.000470340579   -0.008446262865
 N   -0.463921188642    0.111572599047    0.004647812577
 C   -1.521607301455    0.912924629922    0.002154767749
 N   -2.753600417911    0.309125600842   -0.043251055460
 H   -2.762534886232   -0.690568285669    0.126319553105
 H   -3.572178162114    0.835553920242    0.231649069337
 C   -1.453025303021    2.354301469117   -0.001328665917
 H   -2.341549018706    2.985619060361   -0.010810619944
 H    1.835720743648    2.447630904808   -0.010288986665
NA    1.657920192739   -5.495950621459    0.023841168660
