14

 N    0.892391055919    2.090123846952   -0.007083782116
 C   -0.193055886984    2.912882816780   -0.003941910895
 H   -0.001535047102    3.987939789279   -0.006446509437
 C    0.810527335237    0.670853385226   -0.006066113232
 O    1.854270582555    0.017611495165   -0.008546954544
 N   -0.463310753444    0.128713753633    0.004547120898
 C   -1.520996866257    0.930065784508    0.002054076070
 N   -2.752989982713    0.326266755428   -0.043351747139
 H   -2.761924451034   -0.673427131083    0.126218861426
 H   -3.571567726916    0.852695074828    0.231548377658
 C   -1.452414867823    2.371442623703   -0.001429357596
 H   -2.340938583508    3.002760214947   -0.010911311623
 H    1.836331178846    2.464772059394   -0.010389678344
NA    1.654971719672   -5.578744393456    0.024327521191
