14

 N    0.893001491117    2.107265001538   -0.007184473795
 C   -0.192445451786    2.930023971366   -0.004042602574
 H   -0.000924611904    4.005080943865   -0.006547201116
 C    0.811137770435    0.687994539812   -0.006166804911
 O    1.854881017753    0.034752649751   -0.008647646223
 N   -0.462700318246    0.145854908219    0.004446429219
 C   -1.520386431059    0.947206939094    0.001953384391
 N   -2.752379547515    0.343407910014   -0.043452438818
 H   -2.761314015836   -0.656285976497    0.126118169747
 H   -3.570957291718    0.869836229414    0.231447685979
 C   -1.451804432625    2.388583778289   -0.001530049275
 H   -2.340328148310    3.019901369533   -0.011012003302
 H    1.836941614044    2.481913213980   -0.010490370023
NA    1.652023246605   -5.661538165452    0.024813873721
