14

 N    0.893611926316    2.124406156125   -0.007285165474
 C   -0.191835016587    2.947165125953   -0.004143294253
 H   -0.000314176705    4.022222098452   -0.006647892795
 C    0.811748205634    0.705135694399   -0.006267496590
 O    1.855491452952    0.051893804338   -0.008748337902
 N   -0.462089883047    0.162996062806    0.004345737540
 C   -1.519775995860    0.964348093681    0.001852692712
 N   -2.751769112316    0.360549064601   -0.043553130497
 H   -2.760703580637   -0.639144821910    0.126017478068
 H   -3.570346856519    0.886977384001    0.231346994300
 C   -1.451193997426    2.405724932876   -0.001630740954
 H   -2.339717713111    3.037042524120   -0.011112694981
 H    1.837552049243    2.499054368567   -0.010591061702
NA    1.649074773537   -5.744331937448    0.025300226252
