14

 N    0.894832796713    2.158688465297   -0.007486548832
 C   -0.190614146190    2.981447435125   -0.004344677611
 H    0.000906693692    4.056504407624   -0.006849276153
 C    0.812969076031    0.739418003571   -0.006468879948
 O    1.856712323349    0.086176113510   -0.008949721260
 N   -0.460869012650    0.197278371978    0.004144354182
 C   -1.518555125463    0.998630402853    0.001651309354
 N   -2.750548241919    0.394831373773   -0.043754513855
 H   -2.759482710240   -0.604862512738    0.125816094710
 H   -3.569125986122    0.921259693173    0.231145610942
 C   -1.449973127029    2.440007242048   -0.001832124312
 H   -2.338496842714    3.071324833292   -0.011314078339
 H    1.838772919640    2.533336677739   -0.010792445060
NA    1.643177827403   -5.909919481440    0.026272931313
