14

 N    0.896053667110    2.192970774470   -0.007687932189
 C   -0.189393275793    3.015729744298   -0.004546060968
 H    0.002127564089    4.090786716797   -0.007050659510
 C    0.814189946428    0.773700312744   -0.006670263305
 O    1.857933193746    0.120458422683   -0.009151104617
 N   -0.459648142253    0.231560681151    0.003942970825
 C   -1.517334255066    1.032912712026    0.001449925997
 N   -2.749327371522    0.429113682946   -0.043955897212
 H   -2.758261839843   -0.570580203565    0.125614711353
 H   -3.567905115725    0.955542002346    0.230944227585
 C   -1.448752256632    2.474289551221   -0.002033507669
 H   -2.337275972317    3.105607142465   -0.011515461696
 H    1.839993790037    2.567618986912   -0.010993828417
NA    1.637280881268   -6.075507025433    0.027245636374
