14

 N    0.897274537507    2.227253083643   -0.007889315547
 C   -0.188172405396    3.050012053471   -0.004747444326
 H    0.003348434486    4.125069025970   -0.007252042868
 C    0.815410816825    0.807982621917   -0.006871646663
 O    1.859154064143    0.154740731856   -0.009352487975
 N   -0.458427271856    0.265842990324    0.003741587467
 C   -1.516113384669    1.067195021199    0.001248542639
 N   -2.748106501125    0.463395992119   -0.044157280570
 H   -2.757040969446   -0.536297894392    0.125413327995
 H   -3.566684245328    0.989824311519    0.230742844227
 C   -1.447531386235    2.508571860394   -0.002234891027
 H   -2.336055101920    3.139889451638   -0.011716845054
 H    1.841214660434    2.601901296085   -0.011195211775
NA    1.631383935134   -6.241094569425    0.028218341435
