14

 N    0.897884972705    2.244394238229   -0.007990007226
 C   -0.187561970198    3.067153208057   -0.004848136005
 H    0.003958869684    4.142210180556   -0.007352734547
 C    0.816021252023    0.825123776503   -0.006972338342
 O    1.859764499341    0.171881886442   -0.009453179654
 N   -0.457816836658    0.282984144910    0.003640895788
 C   -1.515502949471    1.084336175785    0.001147850960
 N   -2.747496065927    0.480537146705   -0.044257972249
 H   -2.756430534248   -0.519156739806    0.125312636316
 H   -3.566073810130    1.006965466105    0.230642152548
 C   -1.446920951037    2.525713014980   -0.002335582706
 H   -2.335444666722    3.157030606224   -0.011817536733
 H    1.841825095632    2.619042450671   -0.011295903454
NA    1.628435462066   -6.323888341421    0.028704693966
