14

 N    0.900937148698    2.330100011160   -0.008493465621
 C   -0.184509794205    3.152858980988   -0.005351594400
 H    0.007011045677    4.227915953487   -0.007856192942
 C    0.819073428016    0.910829549434   -0.007475796737
 O    1.862816675334    0.257587659373   -0.009956638049
 N   -0.454764660665    0.368689917841    0.003137437393
 C   -1.512450773478    1.170041948716    0.000644392565
 N   -2.744443889934    0.566242919636   -0.044761430644
 H   -2.753378358255   -0.433450966875    0.124809177921
 H   -3.563021634137    1.092671239036    0.230138694153
 C   -1.443868775044    2.611418787911   -0.002839041101
 H   -2.332392490729    3.242736379155   -0.012320995128
 H    1.844877271625    2.704748223602   -0.011799361849
NA    1.613693096730   -6.737857201402    0.031136456619
