14

 N    0.903378889491    2.398664629506   -0.008896232337
 C   -0.182068053412    3.221423599334   -0.005754361116
 H    0.009452786470    4.296480571833   -0.008258959658
 C    0.821515168809    0.979394167780   -0.007878563453
 O    1.865258416127    0.326152277719   -0.010359404765
 N   -0.452322919872    0.437254536187    0.002734670677
 C   -1.510009032685    1.238606567062    0.000241625849
 N   -2.742002149141    0.634807537982   -0.045164197360
 H   -2.750936617462   -0.364886348529    0.124406411205
 H   -3.560579893344    1.161235857382    0.229735927437
 C   -1.441427034251    2.679983406257   -0.003241807817
 H   -2.329950749936    3.311300997501   -0.012723761844
 H    1.847319012418    2.773312841948   -0.012202128565
NA    1.601899204461   -7.069032289387    0.033081866741
