14

 N    0.903989324690    2.415805784092   -0.008996924016
 C   -0.181457618213    3.238564753920   -0.005855052795
 H    0.010063221669    4.313621726419   -0.008359651337
 C    0.822125604008    0.996535322366   -0.007979255132
 O    1.865868851326    0.343293432305   -0.010460096444
 N   -0.451712484673    0.454395690773    0.002633978998
 C   -1.509398597486    1.255747721648    0.000140934170
 N   -2.741391713942    0.651948692568   -0.045264889039
 H   -2.750326182263   -0.347745193943    0.124305719526
 H   -3.559969458145    1.178377011968    0.229635235758
 C   -1.440816599052    2.697124560843   -0.003342499496
 H   -2.329340314737    3.328442152087   -0.012824453523
 H    1.847929447617    2.790453996534   -0.012302820244
NA    1.598950731393   -7.151826061383    0.033568219272
