14

 N    0.904599759888    2.432946938678   -0.009097615695
 C   -0.180847183015    3.255705908506   -0.005955744474
 H    0.010673656867    4.330762881005   -0.008460343016
 C    0.822736039206    1.013676476952   -0.008079946811
 O    1.866479286524    0.360434586891   -0.010560788123
 N   -0.451102049475    0.471536845359    0.002533287319
 C   -1.508788162288    1.272888876234    0.000040242491
 N   -2.740781278744    0.669089847154   -0.045365580718
 H   -2.749715747065   -0.330604039357    0.124205027847
 H   -3.559359022947    1.195518166554    0.229534544079
 C   -1.440206163854    2.714265715429   -0.003443191175
 H   -2.328729879539    3.345583306673   -0.012925145202
 H    1.848539882815    2.807595151120   -0.012403511923
NA    1.596002258326   -7.234619833380    0.034054571802
