14

 N    0.905210195087    2.450088093265   -0.009198307374
 C   -0.180236747816    3.272847063093   -0.006056436153
 H    0.011284092066    4.347904035592   -0.008561034695
 C    0.823346474405    1.030817631539   -0.008180638490
 O    1.867089721723    0.377575741478   -0.010661479802
 N   -0.450491614276    0.488677999946    0.002432595640
 C   -1.508177727089    1.290030030821   -0.000060449188
 N   -2.740170843545    0.686231001741   -0.045466272397
 H   -2.749105311866   -0.313462884770    0.124104336168
 H   -3.558748587748    1.212659321141    0.229433852400
 C   -1.439595728655    2.731406870016   -0.003543882854
 H   -2.328119444340    3.362724461260   -0.013025836881
 H    1.849150318014    2.824736305707   -0.012504203602
NA    1.593053785259   -7.317413605376    0.034540924333
