14

 N    0.905820630285    2.467229247851   -0.009298999053
 C   -0.179626312618    3.289988217679   -0.006157127832
 H    0.011894527264    4.365045190178   -0.008661726374
 C    0.823956909603    1.047958786125   -0.008281330169
 O    1.867700156921    0.394716896064   -0.010762171481
 N   -0.449881179078    0.505819154532    0.002331903961
 C   -1.507567291891    1.307171185407   -0.000161140867
 N   -2.739560408347    0.703372156327   -0.045566964076
 H   -2.748494876668   -0.296321730184    0.124003644489
 H   -3.558138152550    1.229800475727    0.229333160721
 C   -1.438985293457    2.748548024602   -0.003644574533
 H   -2.327509009142    3.379865615846   -0.013126528560
 H    1.849760753212    2.841877460293   -0.012604895281
NA    1.590105312191   -7.400207377372    0.035027276863
