14

 N    0.908872806278    2.552935020782   -0.009802457448
 C   -0.176574136625    3.375693990610   -0.006660586227
 H    0.014946703257    4.450750963109   -0.009165184769
 C    0.827009085596    1.133664559056   -0.008784788564
 O    1.870752332914    0.480422668995   -0.011265629876
 N   -0.446829003085    0.591524927463    0.001828445566
 C   -1.504515115898    1.392876958338   -0.000664599262
 N   -2.736508232354    0.789077929258   -0.046070422471
 H   -2.745442700675   -0.210615957253    0.123500186094
 H   -3.555085976557    1.315506248658    0.228829702326
 C   -1.435933117464    2.834253797533   -0.004148032928
 H   -2.324456833149    3.465571388777   -0.013629986955
 H    1.852812929205    2.927583233224   -0.013108353676
NA    1.575362946855   -7.814176237353    0.037459039516
