14

 N    0.914366723064    2.707205412059   -0.010708682558
 C   -0.171080219839    3.529964381887   -0.007566811337
 H    0.020440620043    4.605021354386   -0.010071409879
 C    0.832503002382    1.287934950333   -0.009691013674
 O    1.876246249700    0.634693060272   -0.012171854986
 N   -0.441335086299    0.745795318740    0.000922220456
 C   -1.499021199112    1.547147349615   -0.001570824372
 N   -2.731014315568    0.943348320535   -0.046976647581
 H   -2.739948783889   -0.056345565976    0.122593960984
 H   -3.549592059771    1.469776639935    0.227923477216
 C   -1.430439200678    2.988524188810   -0.005054258038
 H   -2.318962916363    3.619841780054   -0.014536212065
 H    1.858306845991    3.081853624501   -0.014014578786
NA    1.548826689249   -8.559320185319    0.041836212292
