14

 N    0.917418899056    2.792911184991   -0.011212140953
 C   -0.168028043847    3.615670154819   -0.008070269732
 H    0.023492796035    4.690727127318   -0.010574868274
 C    0.835555178374    1.373640723265   -0.010194472069
 O    1.879298425692    0.720398833204   -0.012675313381
 N   -0.438282910307    0.831501091672    0.000418762061
 C   -1.495969023120    1.632853122547   -0.002074282767
 N   -2.727962139576    1.029054093467   -0.047480105976
 H   -2.736896607897    0.029360206956    0.122090502589
 H   -3.546539883779    1.555482412867    0.227420018821
 C   -1.427387024686    3.074229961742   -0.005557716433
 H   -2.315910740371    3.705547552986   -0.015039670460
 H    1.861359021983    3.167559397433   -0.014518037181
NA    1.534084323913   -8.973289045300    0.044267974944
