10

 C    0.948933159060   -1.859862036490    1.523330654551
 C   -0.150365840940   -0.811002036490    1.523330654551
 N   -1.429973840940   -1.314791036490    1.523330654551
 H   -2.204646840940   -0.664207036490    1.523330654551
 H   -1.616644840940   -2.306842036490    1.523330654551
 O    0.071226159060    0.401999963510    1.523330654551
 H    1.919598159060   -1.350717036490    1.523330654551
 H    0.869295159060   -2.500867036490    2.415577654551
 H    0.869295159060   -2.500867036490    0.631083654551
CS    0.071226159060    0.401999963510   -0.676669345449
