10

 C    0.948933159060   -1.859862036490    1.592572957030
 C   -0.150365840940   -0.811002036490    1.592572957030
 N   -1.429973840940   -1.314791036490    1.592572957030
 H   -2.204646840940   -0.664207036490    1.592572957030
 H   -1.616644840940   -2.306842036490    1.592572957030
 O    0.071226159060    0.401999963510    1.592572957030
 H    1.919598159060   -1.350717036490    1.592572957030
 H    0.869295159060   -2.500867036490    2.484819957030
 H    0.869295159060   -2.500867036490    0.700325957030
CS    0.071226159060    0.401999963510   -0.707427042970
