10

 C    0.948933159060   -1.859862036490    1.800299864469
 C   -0.150365840940   -0.811002036490    1.800299864469
 N   -1.429973840940   -1.314791036490    1.800299864469
 H   -2.204646840940   -0.664207036490    1.800299864469
 H   -1.616644840940   -2.306842036490    1.800299864469
 O    0.071226159060    0.401999963510    1.800299864469
 H    1.919598159060   -1.350717036490    1.800299864469
 H    0.869295159060   -2.500867036490    2.692546864469
 H    0.869295159060   -2.500867036490    0.908052864469
CS    0.071226159060    0.401999963510   -0.799700135531
