10

 C    0.948933159060   -1.859862036490    2.700449796703
 C   -0.150365840940   -0.811002036490    2.700449796703
 N   -1.429973840940   -1.314791036490    2.700449796703
 H   -2.204646840940   -0.664207036490    2.700449796703
 H   -1.616644840940   -2.306842036490    2.700449796703
 O    0.071226159060    0.401999963510    2.700449796703
 H    1.919598159060   -1.350717036490    2.700449796703
 H    0.869295159060   -2.500867036490    3.592696796703
 H    0.869295159060   -2.500867036490    1.808202796703
CS    0.071226159060    0.401999963510   -1.199550203297
