10

 C    0.948933159060   -1.859862036490    3.808326636376
 C   -0.150365840940   -0.811002036490    3.808326636376
 N   -1.429973840940   -1.314791036490    3.808326636376
 H   -2.204646840940   -0.664207036490    3.808326636376
 H   -1.616644840940   -2.306842036490    3.808326636376
 O    0.071226159060    0.401999963510    3.808326636376
 H    1.919598159060   -1.350717036490    3.808326636376
 H    0.869295159060   -2.500867036490    4.700573636376
 H    0.869295159060   -2.500867036490    2.916079636376
CS    0.071226159060    0.401999963510   -1.691673363624
