10

 C    0.948933159060   -1.859862036490    5.885595710764
 C   -0.150365840940   -0.811002036490    5.885595710764
 N   -1.429973840940   -1.314791036490    5.885595710764
 H   -2.204646840940   -0.664207036490    5.885595710764
 H   -1.616644840940   -2.306842036490    5.885595710764
 O    0.071226159060    0.401999963510    5.885595710764
 H    1.919598159060   -1.350717036490    5.885595710764
 H    0.869295159060   -2.500867036490    6.777842710764
 H    0.869295159060   -2.500867036490    4.993348710764
CS    0.071226159060    0.401999963510   -2.614404289236
