10

 C    0.948933159060   -1.859862036490    6.647261038039
 C   -0.150365840940   -0.811002036490    6.647261038039
 N   -1.429973840940   -1.314791036490    6.647261038039
 H   -2.204646840940   -0.664207036490    6.647261038039
 H   -1.616644840940   -2.306842036490    6.647261038039
 O    0.071226159060    0.401999963510    6.647261038039
 H    1.919598159060   -1.350717036490    6.647261038039
 H    0.869295159060   -2.500867036490    7.539508038039
 H    0.869295159060   -2.500867036490    5.755014038039
CS    0.071226159060    0.401999963510   -2.952738961961
