13

 C    0.423014002387    2.203524125008    0.000000000000
 H    0.457534002387    3.304376125008    0.000000000000
 H    0.947597002387    1.834379125008    0.893619000000
 H    0.947597002387    1.834379125008   -0.893619000000
 C   -1.019765997613    1.726473125008    0.000000000000
 H   -1.558939997613    2.097626125008   -0.894766000000
 H   -1.558939997613    2.097626125008    0.894766000000
 O   -1.019200997613    0.297966125008    0.000000000000
 C   -2.348787997613   -0.212440874992    0.000000000000
 H   -2.902170997613    0.118338125008   -0.899133000000
 H   -2.902170997613    0.118338125008    0.899133000000
 H   -2.275704997613   -1.307915874992    0.000000000000
RB    0.713245192287   -0.701348739838    0.000000000000
