13

 C    0.321540723613    2.262056249385    0.000000000000
 H    0.356060723613    3.362908249385    0.000000000000
 H    0.846123723613    1.892911249385    0.893619000000
 H    0.846123723613    1.892911249385   -0.893619000000
 C   -1.121239276387    1.785005249385    0.000000000000
 H   -1.660413276387    2.156158249385   -0.894766000000
 H   -1.660413276387    2.156158249385    0.894766000000
 O   -1.120674276387    0.356498249385    0.000000000000
 C   -2.450261276387   -0.153908750615    0.000000000000
 H   -3.003644276387    0.176870249385   -0.899133000000
 H   -3.003644276387    0.176870249385    0.899133000000
 H   -2.377178276387   -1.249383750615    0.000000000000
RB    0.785016532503   -0.742748101946    0.000000000000
