13

 C    0.169330805453    2.349854435950    0.000000000000
 H    0.203850805453    3.450706435950    0.000000000000
 H    0.693913805453    1.980709435950    0.893619000000
 H    0.693913805453    1.980709435950   -0.893619000000
 C   -1.273449194547    1.872803435950    0.000000000000
 H   -1.812623194547    2.243956435950   -0.894766000000
 H   -1.812623194547    2.243956435950    0.894766000000
 O   -1.272884194547    0.444296435950    0.000000000000
 C   -2.602471194547   -0.066110564050    0.000000000000
 H   -3.155854194547    0.264668435950   -0.899133000000
 H   -3.155854194547    0.264668435950    0.899133000000
 H   -2.529388194547   -1.161585564050    0.000000000000
RB    0.892673542827   -0.804847145107    0.000000000000
