13

 C   -0.033615752095    2.466918684704    0.000000000000
 H    0.000904247905    3.567770684704    0.000000000000
 H    0.490967247905    2.097773684704    0.893619000000
 H    0.490967247905    2.097773684704   -0.893619000000
 C   -1.476395752095    1.989867684704    0.000000000000
 H   -2.015569752095    2.361020684704   -0.894766000000
 H   -2.015569752095    2.361020684704    0.894766000000
 O   -1.475830752095    0.561360684704    0.000000000000
 C   -2.805417752095    0.050953684704    0.000000000000
 H   -3.358800752095    0.381732684704   -0.899133000000
 H   -3.358800752095    0.381732684704    0.899133000000
 H   -2.732334752095   -1.044521315296    0.000000000000
RB    1.036216223259   -0.887645869323    0.000000000000
