13

 C   -0.084352391482    2.496184746892    0.000000000000
 H   -0.049832391482    3.597036746892    0.000000000000
 H    0.440230608518    2.127039746892    0.893619000000
 H    0.440230608518    2.127039746892   -0.893619000000
 C   -1.527132391482    2.019133746892    0.000000000000
 H   -2.066306391482    2.390286746892   -0.894766000000
 H   -2.066306391482    2.390286746892    0.894766000000
 O   -1.526567391482    0.590626746892    0.000000000000
 C   -2.856154391482    0.080219746892    0.000000000000
 H   -3.409537391482    0.410998746892   -0.899133000000
 H   -3.409537391482    0.410998746892    0.899133000000
 H   -2.783071391482   -1.015255253108    0.000000000000
RB    1.072101893367   -0.908345550377    0.000000000000
