13

 C   -0.338035588417    2.642515057835    0.000000000000
 H   -0.303515588417    3.743367057835    0.000000000000
 H    0.186547411583    2.273370057835    0.893619000000
 H    0.186547411583    2.273370057835   -0.893619000000
 C   -1.780815588417    2.165464057835    0.000000000000
 H   -2.319989588417    2.536617057835   -0.894766000000
 H   -2.319989588417    2.536617057835    0.894766000000
 O   -1.780250588417    0.736957057835    0.000000000000
 C   -3.109837588417    0.226550057835    0.000000000000
 H   -3.663220588417    0.557329057835   -0.899133000000
 H   -3.663220588417    0.557329057835    0.899133000000
 H   -3.036754588417   -0.868924942165    0.000000000000
RB    1.251530243907   -1.011843955646    0.000000000000
