13

 C   -0.388772227804    2.671781120023    0.000000000000
 H   -0.354252227804    3.772633120023    0.000000000000
 H    0.135810772196    2.302636120023    0.893619000000
 H    0.135810772196    2.302636120023   -0.893619000000
 C   -1.831552227804    2.194730120023    0.000000000000
 H   -2.370726227804    2.565883120023   -0.894766000000
 H   -2.370726227804    2.565883120023    0.894766000000
 O   -1.830987227804    0.766223120023    0.000000000000
 C   -3.160574227804    0.255816120023    0.000000000000
 H   -3.713957227804    0.586595120023   -0.899133000000
 H   -3.713957227804    0.586595120023    0.899133000000
 H   -3.087491227804   -0.839658879977    0.000000000000
RB    1.287415914015   -1.032543636700    0.000000000000
