13

 C   -0.642455424739    2.818111430965    0.000000000000
 H   -0.607935424739    3.918963430965    0.000000000000
 H   -0.117872424739    2.448966430965    0.893619000000
 H   -0.117872424739    2.448966430965   -0.893619000000
 C   -2.085235424739    2.341060430965    0.000000000000
 H   -2.624409424739    2.712213430965   -0.894766000000
 H   -2.624409424739    2.712213430965    0.894766000000
 O   -2.084670424739    0.912553430965    0.000000000000
 C   -3.414257424739    0.402146430965    0.000000000000
 H   -3.967640424739    0.732925430965   -0.899133000000
 H   -3.967640424739    0.732925430965    0.899133000000
 H   -3.341174424739   -0.693328569035    0.000000000000
RB    1.466844264555   -1.136042041969    0.000000000000
