13

 C   -0.794665342900    2.905909617531    0.000000000000
 H   -0.760145342900    4.006761617531    0.000000000000
 H   -0.270082342900    2.536764617531    0.893619000000
 H   -0.270082342900    2.536764617531   -0.893619000000
 C   -2.237445342900    2.428858617531    0.000000000000
 H   -2.776619342900    2.800011617531   -0.894766000000
 H   -2.776619342900    2.800011617531    0.894766000000
 O   -2.236880342900    1.000351617531    0.000000000000
 C   -3.566467342900    0.489944617531    0.000000000000
 H   -4.119850342900    0.820723617531   -0.899133000000
 H   -4.119850342900    0.820723617531    0.899133000000
 H   -3.493384342900   -0.605530382469    0.000000000000
RB    1.574501274879   -1.198141085130    0.000000000000
