13

 C   -0.845401982287    2.935175679719    0.000000000000
 H   -0.810881982287    4.036027679719    0.000000000000
 H   -0.320818982287    2.566030679719    0.893619000000
 H   -0.320818982287    2.566030679719   -0.893619000000
 C   -2.288181982287    2.458124679719    0.000000000000
 H   -2.827355982287    2.829277679719   -0.894766000000
 H   -2.827355982287    2.829277679719    0.894766000000
 O   -2.287616982287    1.029617679719    0.000000000000
 C   -3.617203982287    0.519210679719    0.000000000000
 H   -4.170586982287    0.849989679719   -0.899133000000
 H   -4.170586982287    0.849989679719    0.899133000000
 H   -3.544120982287   -0.576264320281    0.000000000000
RB    1.610386944987   -1.218840766184    0.000000000000
