13

 C   -0.946875261061    2.993707804096    0.000000000000
 H   -0.912355261061    4.094559804096    0.000000000000
 H   -0.422292261061    2.624562804096    0.893619000000
 H   -0.422292261061    2.624562804096   -0.893619000000
 C   -2.389655261061    2.516656804096    0.000000000000
 H   -2.928829261061    2.887809804096   -0.894766000000
 H   -2.928829261061    2.887809804096    0.894766000000
 O   -2.389090261061    1.088149804096    0.000000000000
 C   -3.718677261061    0.577742804096    0.000000000000
 H   -4.272060261061    0.908521804096   -0.899133000000
 H   -4.272060261061    0.908521804096    0.899133000000
 H   -3.645594261061   -0.517732195904    0.000000000000
RB    1.682158285203   -1.260240128292    0.000000000000
