13

 C   -0.997611900448    3.022973866284    0.000000000000
 H   -0.963091900448    4.123825866284    0.000000000000
 H   -0.473028900448    2.653828866284    0.893619000000
 H   -0.473028900448    2.653828866284   -0.893619000000
 C   -2.440391900448    2.545922866284    0.000000000000
 H   -2.979565900448    2.917075866284   -0.894766000000
 H   -2.979565900448    2.917075866284    0.894766000000
 O   -2.439826900448    1.117415866284    0.000000000000
 C   -3.769413900448    0.607008866284    0.000000000000
 H   -4.322796900448    0.937787866284   -0.899133000000
 H   -4.322796900448    0.937787866284    0.899133000000
 H   -3.696330900448   -0.488466133716    0.000000000000
RB    1.718043955311   -1.280939809346    0.000000000000
