13

 C   -1.504978294318    3.315634488169    0.000000000000
 H   -1.470458294318    4.416486488169    0.000000000000
 H   -0.980395294318    2.946489488169    0.893619000000
 H   -0.980395294318    2.946489488169   -0.893619000000
 C   -2.947758294318    2.838583488169    0.000000000000
 H   -3.486932294318    3.209736488169   -0.894766000000
 H   -3.486932294318    3.209736488169    0.894766000000
 O   -2.947193294318    1.410076488169    0.000000000000
 C   -4.276780294318    0.899669488169    0.000000000000
 H   -4.830163294318    1.230448488169   -0.899133000000
 H   -4.830163294318    1.230448488169    0.899133000000
 H   -4.203697294318   -0.195805511831    0.000000000000
RB    2.076900656391   -1.487936619884    0.000000000000
