13

 C   -1.657188212479    3.403432674734    0.000000000000
 H   -1.622668212479    4.504284674734    0.000000000000
 H   -1.132605212479    3.034287674734    0.893619000000
 H   -1.132605212479    3.034287674734   -0.893619000000
 C   -3.099968212479    2.926381674734    0.000000000000
 H   -3.639142212479    3.297534674734   -0.894766000000
 H   -3.639142212479    3.297534674734    0.894766000000
 O   -3.099403212479    1.497874674734    0.000000000000
 C   -4.428990212479    0.987467674734    0.000000000000
 H   -4.982373212479    1.318246674734   -0.899133000000
 H   -4.982373212479    1.318246674734    0.899133000000
 H   -4.355907212479   -0.108007325266    0.000000000000
RB    2.184557666715   -1.550035663046    0.000000000000
