13

 C   -1.707924851866    3.432698736923    0.000000000000
 H   -1.673404851866    4.533550736923    0.000000000000
 H   -1.183341851866    3.063553736923    0.893619000000
 H   -1.183341851866    3.063553736923   -0.893619000000
 C   -3.150704851866    2.955647736923    0.000000000000
 H   -3.689878851866    3.326800736923   -0.894766000000
 H   -3.689878851866    3.326800736923    0.894766000000
 O   -3.150139851866    1.527140736923    0.000000000000
 C   -4.479726851866    1.016733736923    0.000000000000
 H   -5.033109851866    1.347512736923   -0.899133000000
 H   -5.033109851866    1.347512736923    0.899133000000
 H   -4.406643851866   -0.078741263077    0.000000000000
RB    2.220443336823   -1.570735344100    0.000000000000
