13

 C   -1.758661491253    3.461964799111    0.000000000000
 H   -1.724141491253    4.562816799111    0.000000000000
 H   -1.234078491253    3.092819799111    0.893619000000
 H   -1.234078491253    3.092819799111   -0.893619000000
 C   -3.201441491253    2.984913799111    0.000000000000
 H   -3.740615491253    3.356066799111   -0.894766000000
 H   -3.740615491253    3.356066799111    0.894766000000
 O   -3.200876491253    1.556406799111    0.000000000000
 C   -4.530463491253    1.045999799111    0.000000000000
 H   -5.083846491253    1.376778799111   -0.899133000000
 H   -5.083846491253    1.376778799111    0.899133000000
 H   -4.457380491253   -0.049475200889    0.000000000000
RB    2.256329006931   -1.591435025154    0.000000000000
