13

 C   -2.063081327575    3.637561172242    0.000000000000
 H   -2.028561327575    4.738413172242    0.000000000000
 H   -1.538498327575    3.268416172242    0.893619000000
 H   -1.538498327575    3.268416172242   -0.893619000000
 C   -3.505861327575    3.160510172242    0.000000000000
 H   -4.045035327575    3.531663172242   -0.894766000000
 H   -4.045035327575    3.531663172242    0.894766000000
 O   -3.505296327575    1.732003172242    0.000000000000
 C   -4.834883327575    1.221596172242    0.000000000000
 H   -5.388266327575    1.552375172242   -0.899133000000
 H   -5.388266327575    1.552375172242    0.899133000000
 H   -4.761800327575    0.126121172242    0.000000000000
RB    2.471643027579   -1.715633111477    0.000000000000
