13

 C   -2.113817966962    3.666827234430    0.000000000000
 H   -2.079297966962    4.767679234430    0.000000000000
 H   -1.589234966962    3.297682234430    0.893619000000
 H   -1.589234966962    3.297682234430   -0.893619000000
 C   -3.556597966962    3.189776234430    0.000000000000
 H   -4.095771966962    3.560929234430   -0.894766000000
 H   -4.095771966962    3.560929234430    0.894766000000
 O   -3.556032966962    1.761269234430    0.000000000000
 C   -4.885619966962    1.250862234430    0.000000000000
 H   -5.439002966962    1.581641234430   -0.899133000000
 H   -5.439002966962    1.581641234430    0.899133000000
 H   -4.812536966962    0.155387234430    0.000000000000
RB    2.507528697687   -1.736332792531    0.000000000000
