13

 C   -2.164554606349    3.696093296619    0.000000000000
 H   -2.130034606349    4.796945296619    0.000000000000
 H   -1.639971606349    3.326948296619    0.893619000000
 H   -1.639971606349    3.326948296619   -0.893619000000
 C   -3.607334606349    3.219042296619    0.000000000000
 H   -4.146508606349    3.590195296619   -0.894766000000
 H   -4.146508606349    3.590195296619    0.894766000000
 O   -3.606769606349    1.790535296619    0.000000000000
 C   -4.936356606349    1.280128296619    0.000000000000
 H   -5.489739606349    1.610907296619   -0.899133000000
 H   -5.489739606349    1.610907296619    0.899133000000
 H   -4.863273606349    0.184653296619    0.000000000000
RB    2.543414367795   -1.757032473584    0.000000000000
