13

 C   -2.266027885123    3.754625420996    0.000000000000
 H   -2.231507885123    4.855477420996    0.000000000000
 H   -1.741444885123    3.385480420996    0.893619000000
 H   -1.741444885123    3.385480420996   -0.893619000000
 C   -3.708807885123    3.277574420996    0.000000000000
 H   -4.247981885123    3.648727420996   -0.894766000000
 H   -4.247981885123    3.648727420996    0.894766000000
 O   -3.708242885123    1.849067420996    0.000000000000
 C   -5.037829885123    1.338660420996    0.000000000000
 H   -5.591212885123    1.669439420996   -0.899133000000
 H   -5.591212885123    1.669439420996    0.899133000000
 H   -4.964746885123    0.243185420996    0.000000000000
RB    2.615185708011   -1.798431835692    0.000000000000
