13

 C   -2.316764524510    3.783891483184    0.000000000000
 H   -2.282244524510    4.884743483184    0.000000000000
 H   -1.792181524510    3.414746483184    0.893619000000
 H   -1.792181524510    3.414746483184   -0.893619000000
 C   -3.759544524510    3.306840483184    0.000000000000
 H   -4.298718524510    3.677993483184   -0.894766000000
 H   -4.298718524510    3.677993483184    0.894766000000
 O   -3.758979524510    1.878333483184    0.000000000000
 C   -5.088566524510    1.367926483184    0.000000000000
 H   -5.641949524510    1.698705483184   -0.899133000000
 H   -5.641949524510    1.698705483184    0.899133000000
 H   -5.015483524510    0.272451483184    0.000000000000
RB    2.651071378119   -1.819131516746    0.000000000000
