13

 C   -2.367501163897    3.813157545373    0.000000000000
 H   -2.332981163897    4.914009545373    0.000000000000
 H   -1.842918163897    3.444012545373    0.893619000000
 H   -1.842918163897    3.444012545373   -0.893619000000
 C   -3.810281163897    3.336106545373    0.000000000000
 H   -4.349455163897    3.707259545373   -0.894766000000
 H   -4.349455163897    3.707259545373    0.894766000000
 O   -3.809716163897    1.907599545373    0.000000000000
 C   -5.139303163897    1.397192545373    0.000000000000
 H   -5.692686163897    1.727971545373   -0.899133000000
 H   -5.692686163897    1.727971545373    0.899133000000
 H   -5.066220163897    0.301717545373    0.000000000000
RB    2.686957048227   -1.839831197800    0.000000000000
