13

 C   -2.570447721445    3.930221794126    0.000000000000
 H   -2.535927721445    5.031073794126    0.000000000000
 H   -2.045864721445    3.561076794126    0.893619000000
 H   -2.045864721445    3.561076794126   -0.893619000000
 C   -4.013227721445    3.453170794126    0.000000000000
 H   -4.552401721445    3.824323794126   -0.894766000000
 H   -4.552401721445    3.824323794126    0.894766000000
 O   -4.012662721445    2.024663794126    0.000000000000
 C   -5.342249721445    1.514256794126    0.000000000000
 H   -5.895632721445    1.845035794126   -0.899133000000
 H   -5.895632721445    1.845035794126    0.899133000000
 H   -5.269166721445    0.418781794126    0.000000000000
RB    2.830499728659   -1.922629922015    0.000000000000
