13

 C   -2.722657639606    4.018019980692    0.000000000000
 H   -2.688137639606    5.118871980692    0.000000000000
 H   -2.198074639606    3.648874980692    0.893619000000
 H   -2.198074639606    3.648874980692   -0.893619000000
 C   -4.165437639606    3.540968980692    0.000000000000
 H   -4.704611639606    3.912121980692   -0.894766000000
 H   -4.704611639606    3.912121980692    0.894766000000
 O   -4.164872639606    2.112461980692    0.000000000000
 C   -5.494459639606    1.602054980692    0.000000000000
 H   -6.047842639606    1.932833980692   -0.899133000000
 H   -6.047842639606    1.932833980692    0.899133000000
 H   -5.421376639606    0.506579980692    0.000000000000
RB    2.938156738983   -1.984728965177    0.000000000000
