13

 C   -2.773394278993    4.047286042880    0.000000000000
 H   -2.738874278993    5.148138042880    0.000000000000
 H   -2.248811278993    3.678141042880    0.893619000000
 H   -2.248811278993    3.678141042880   -0.893619000000
 C   -4.216174278993    3.570235042880    0.000000000000
 H   -4.755348278993    3.941388042880   -0.894766000000
 H   -4.755348278993    3.941388042880    0.894766000000
 O   -4.215609278993    2.141728042880    0.000000000000
 C   -5.545196278993    1.631321042880    0.000000000000
 H   -6.098579278993    1.962100042880   -0.899133000000
 H   -6.098579278993    1.962100042880    0.899133000000
 H   -5.472113278993    0.535846042880    0.000000000000
RB    2.974042409091   -2.005428646231    0.000000000000
