13

 C   -2.925604197154    4.135084229445    0.000000000000
 H   -2.891084197154    5.235936229445    0.000000000000
 H   -2.401021197154    3.765939229445    0.893619000000
 H   -2.401021197154    3.765939229445   -0.893619000000
 C   -4.368384197154    3.658033229445    0.000000000000
 H   -4.907558197154    4.029186229445   -0.894766000000
 H   -4.907558197154    4.029186229445    0.894766000000
 O   -4.367819197154    2.229526229445    0.000000000000
 C   -5.697406197154    1.719119229445    0.000000000000
 H   -6.250789197154    2.049898229445   -0.899133000000
 H   -6.250789197154    2.049898229445    0.899133000000
 H   -5.624323197154    0.623644229445    0.000000000000
RB    3.081699419415   -2.067527689392    0.000000000000
