13

 C   -3.331497312250    4.369212726953    0.000000000000
 H   -3.296977312250    5.470064726953    0.000000000000
 H   -2.806914312250    4.000067726953    0.893619000000
 H   -2.806914312250    4.000067726953   -0.893619000000
 C   -4.774277312250    3.892161726953    0.000000000000
 H   -5.313451312250    4.263314726953   -0.894766000000
 H   -5.313451312250    4.263314726953    0.894766000000
 O   -4.773712312250    2.463654726953    0.000000000000
 C   -6.103299312250    1.953247726953    0.000000000000
 H   -6.656682312250    2.284026726953   -0.899133000000
 H   -6.656682312250    2.284026726953    0.899133000000
 H   -6.030216312250    0.857772726953    0.000000000000
RB    3.368784780279   -2.233125137823    0.000000000000
