13

 C   -3.534443869798    4.486276975707    0.000000000000
 H   -3.499923869798    5.587128975707    0.000000000000
 H   -3.009860869798    4.117131975707    0.893619000000
 H   -3.009860869798    4.117131975707   -0.893619000000
 C   -4.977223869798    4.009225975707    0.000000000000
 H   -5.516397869798    4.380378975707   -0.894766000000
 H   -5.516397869798    4.380378975707    0.894766000000
 O   -4.976658869798    2.580718975707    0.000000000000
 C   -6.306245869798    2.070311975707    0.000000000000
 H   -6.859628869798    2.401090975707   -0.899133000000
 H   -6.859628869798    2.401090975707    0.899133000000
 H   -6.233162869798    0.974836975707    0.000000000000
RB    3.512327460711   -2.315923862038    0.000000000000
