13

 C   -3.585180509185    4.515543037895    0.000000000000
 H   -3.550660509185    5.616395037895    0.000000000000
 H   -3.060597509185    4.146398037895    0.893619000000
 H   -3.060597509185    4.146398037895   -0.893619000000
 C   -5.027960509185    4.038492037895    0.000000000000
 H   -5.567134509185    4.409645037895   -0.894766000000
 H   -5.567134509185    4.409645037895    0.894766000000
 O   -5.027395509185    2.609985037895    0.000000000000
 C   -6.356982509185    2.099578037895    0.000000000000
 H   -6.910365509185    2.430357037895   -0.899133000000
 H   -6.910365509185    2.430357037895    0.899133000000
 H   -6.283899509185    1.004103037895    0.000000000000
RB    3.548213130819   -2.336623543092    0.000000000000
