15

 N   -2.305666880395   -0.071075875345   -0.000000122561
 H   -1.963596880395    0.479134124655    0.789549877439
 H   -1.963596880395    0.479134124655   -0.789550122561
 C   -3.790316880395    0.012234124655   -0.000000122561
 H   -4.148866880395   -0.513175875345   -0.892790122561
 H   -4.173146880395    1.040164124655   -0.000000122561
 H   -4.148866880395   -0.513175875345    0.892789877439
RB    0.269393119605    0.008304124655   -0.000000122561
 N    1.568775883315    0.048359503475   -0.000000122561
 H    1.226708156175   -0.501851861985   -0.789552222785
 H    1.226707856713   -0.501843168656    0.789557905931
 C    3.053430378949   -0.034948891611    0.000000664901
 H    3.411978091926    0.490473071142    0.892790442494
 H    3.436257950764   -1.062875280136    0.000006447532
 H    3.411978492268    0.490463327703   -0.892794686023
