15

 N   -2.411205196816   -0.074329248687   -0.000000122561
 H   -2.069135196816    0.475880751313    0.789549877439
 H   -2.069135196816    0.475880751313   -0.789550122561
 C   -3.895855196816    0.008980751313   -0.000000122561
 H   -4.254405196816   -0.516429248687   -0.892790122561
 H   -4.278685196816    1.036910751313   -0.000000122561
 H   -4.254405196816   -0.516429248687    0.892789877439
RB    0.163854803184    0.005050751313   -0.000000122561
 N    1.963000168322    0.060512045064   -0.000000122561
 H    1.620932441181   -0.489699320396   -0.789552222785
 H    1.620932141720   -0.489690627067    0.789557905931
 C    3.447654663956   -0.022796350023    0.000000664901
 H    3.806202376933    0.502625612731    0.892790442494
 H    3.830482235771   -1.050722738547    0.000006447532
 H    3.806202777275    0.502615869291   -0.892794686023
