15

 N   -2.474528186668   -0.076281272692   -0.000000122561
 H   -2.132458186668    0.473928727308    0.789549877439
 H   -2.132458186668    0.473928727308   -0.789550122561
 C   -3.959178186668    0.007028727308   -0.000000122561
 H   -4.317728186668   -0.518381272692   -0.892790122561
 H   -4.342008186668    1.034958727308   -0.000000122561
 H   -4.317728186668   -0.518381272692    0.892789877439
RB    0.100531813332    0.003098727308   -0.000000122561
 N    2.199534739326    0.067803570017   -0.000000122561
 H    1.857467012185   -0.482407795442   -0.789552222785
 H    1.857466712724   -0.482399102114    0.789557905931
 C    3.684189234960   -0.015504825069    0.000000664901
 H    4.042736947937    0.509917137684    0.892790442494
 H    4.067016806775   -1.043431213594    0.000006447532
 H    4.042737348279    0.509907394245   -0.892794686023
