15

 N   -2.516743513236   -0.077582622028   -0.000000122561
 H   -2.174673513236    0.472627377972    0.789549877439
 H   -2.174673513236    0.472627377972   -0.789550122561
 C   -4.001393513236    0.005727377972   -0.000000122561
 H   -4.359943513236   -0.519682622028   -0.892790122561
 H   -4.384223513236    1.033657377972   -0.000000122561
 H   -4.359943513236   -0.519682622028    0.892789877439
RB    0.058316486764    0.001797377972   -0.000000122561
 N    2.357224453329    0.072664586653   -0.000000122561
 H    2.015156726188   -0.477546778807   -0.789552222785
 H    2.015156426727   -0.477538085478    0.789557905931
 C    3.841878948963   -0.010643808434    0.000000664901
 H    4.200426661939    0.514778154320    0.892790442494
 H    4.224706520778   -1.038570196958    0.000006447532
 H    4.200427062282    0.514768410880   -0.892794686023
