15

 N   -2.558958839804   -0.078883971365   -0.000000122561
 H   -2.216888839804    0.471326028635    0.789549877439
 H   -2.216888839804    0.471326028635   -0.789550122561
 C   -4.043608839804    0.004426028635   -0.000000122561
 H   -4.402158839804   -0.520983971365   -0.892790122561
 H   -4.426438839804    1.032356028635   -0.000000122561
 H   -4.402158839804   -0.520983971365    0.892789877439
RB    0.016101160196    0.000496028635   -0.000000122561
 N    2.514914167331    0.077525603288   -0.000000122561
 H    2.172846440191   -0.472685762171   -0.789552222785
 H    2.172846140729   -0.472677068843    0.789557905931
 C    3.999568662966   -0.005782791798    0.000000664901
 H    4.358116375942    0.519639170955    0.892790442494
 H    4.382396234780   -1.033709180323    0.000006447532
 H    4.358116776284    0.519629427516   -0.892794686023
