15

 N   -2.706712482792   -0.083438694043   -0.000000122561
 H   -2.364642482792    0.466771305957    0.789549877439
 H   -2.364642482792    0.466771305957   -0.789550122561
 C   -4.191362482792   -0.000128694043   -0.000000122561
 H   -4.549912482792   -0.525538694043   -0.892790122561
 H   -4.574192482792    1.027801305957   -0.000000122561
 H   -4.549912482792   -0.525538694043    0.892789877439
RB   -0.131652482792   -0.004058694043   -0.000000122561
 N    3.066828166341    0.094539161513   -0.000000122561
 H    2.724760439200   -0.455672203947   -0.789552222785
 H    2.724760139739   -0.455663510618    0.789557905931
 C    4.551482661975    0.011230766426    0.000000664901
 H    4.910030374952    0.536652729180    0.892790442494
 H    4.934310233790   -1.016695622098    0.000006447532
 H    4.910030775294    0.536642985740   -0.892794686023
