15

 N   -2.770035472645   -0.085390718049   -0.000000122561
 H   -2.427965472645    0.464819281951    0.789549877439
 H   -2.427965472645    0.464819281951   -0.789550122561
 C   -4.254685472645   -0.002080718049   -0.000000122561
 H   -4.613235472645   -0.527490718049   -0.892790122561
 H   -4.637515472645    1.025849281951   -0.000000122561
 H   -4.613235472645   -0.527490718049    0.892789877439
RB   -0.194975472645   -0.006010718049   -0.000000122561
 N    3.303362737345    0.101830686466   -0.000000122561
 H    2.961295010204   -0.448380678994   -0.789552222785
 H    2.961294710743   -0.448371985665    0.789557905931
 C    4.788017232979    0.018522291380    0.000000664901
 H    5.146564945956    0.543944254133    0.892790442494
 H    5.170844804794   -1.009404097145    0.000006447532
 H    5.146565346298    0.543934510694   -0.892794686023
