15

 N   -2.791143135929   -0.086041392717   -0.000000122561
 H   -2.449073135929    0.464168607283    0.789549877439
 H   -2.449073135929    0.464168607283   -0.789550122561
 C   -4.275793135929   -0.002731392717   -0.000000122561
 H   -4.634343135929   -0.528141392717   -0.892790122561
 H   -4.658623135929    1.025198607283   -0.000000122561
 H   -4.634343135929   -0.528141392717    0.892789877439
RB   -0.216083135929   -0.006661392717   -0.000000122561
 N    3.382207594346    0.104261194784   -0.000000122561
 H    3.040139867206   -0.445950170676   -0.789552222785
 H    3.040139567744   -0.445941477347    0.789557905931
 C    4.866862089981    0.020952799697    0.000000664901
 H    5.225409802957    0.546374762451    0.892790442494
 H    5.249689661795   -1.006973588827    0.000006447532
 H    5.225410203299    0.546365019011   -0.892794686023
