15

 N   -2.812250799213   -0.086692067385   -0.000000122561
 H   -2.470180799213    0.463517932615    0.789549877439
 H   -2.470180799213    0.463517932615   -0.789550122561
 C   -4.296900799213   -0.003382067385   -0.000000122561
 H   -4.655450799213   -0.528792067385   -0.892790122561
 H   -4.679730799213    1.024547932615   -0.000000122561
 H   -4.655450799213   -0.528792067385    0.892789877439
RB   -0.237190799213   -0.007312067385   -0.000000122561
 N    3.461052451348    0.106691703101   -0.000000122561
 H    3.118984724207   -0.443519662358   -0.789552222785
 H    3.118984424746   -0.443510969029    0.789557905931
 C    4.945706946982    0.023383308015    0.000000664901
 H    5.304254659959    0.548805270769    0.892790442494
 H    5.328534518797   -1.004543080509    0.000006447532
 H    5.304255060301    0.548795527329   -0.892794686023
