15

 N   -2.854466125781   -0.087993416722   -0.000000122561
 H   -2.512396125781    0.462216583278    0.789549877439
 H   -2.512396125781    0.462216583278   -0.789550122561
 C   -4.339116125781   -0.004683416722   -0.000000122561
 H   -4.697666125781   -0.530093416722   -0.892790122561
 H   -4.721946125781    1.023246583278   -0.000000122561
 H   -4.697666125781   -0.530093416722    0.892789877439
RB   -0.279406125781   -0.008613416722   -0.000000122561
 N    3.618742165350    0.111552719737   -0.000000122561
 H    3.276674438210   -0.438658645723   -0.789552222785
 H    3.276674138748   -0.438649952394    0.789557905931
 C    5.103396660985    0.028244324651    0.000000664901
 H    5.461944373961    0.553666287404    0.892790442494
 H    5.486224232799   -0.999682063874    0.000006447532
 H    5.461944774303    0.553656543965   -0.892794686023
