15

 N   -3.002219768769   -0.092548139400   -0.000000122561
 H   -2.660149768769    0.457661860600    0.789549877439
 H   -2.660149768769    0.457661860600   -0.789550122561
 C   -4.486869768769   -0.009238139400   -0.000000122561
 H   -4.845419768769   -0.534648139400   -0.892790122561
 H   -4.869699768769    1.018691860600   -0.000000122561
 H   -4.845419768769   -0.534648139400    0.892789877439
RB   -0.427159768769   -0.013168139400   -0.000000122561
 N    4.170656164360    0.128566277961   -0.000000122561
 H    3.828588437219   -0.421645087498   -0.789552222785
 H    3.828588137758   -0.421636394169    0.789557905931
 C    5.655310659994    0.045257882875    0.000000664901
 H    6.013858372971    0.570679845629    0.892790442494
 H    6.038138231809   -0.982668505649    0.000006447532
 H    6.013858773313    0.570670102189   -0.892794686023
