15

 N   -3.023327432053   -0.093198814069   -0.000000122561
 H   -2.681257432053    0.457011185931    0.789549877439
 H   -2.681257432053    0.457011185931   -0.789550122561
 C   -4.507977432053   -0.009888814069   -0.000000122561
 H   -4.866527432053   -0.535298814069   -0.892790122561
 H   -4.890807432053    1.018041185931   -0.000000122561
 H   -4.866527432053   -0.535298814069    0.892789877439
RB   -0.448267432053   -0.013818814069   -0.000000122561
 N    4.249501021361    0.130996786279   -0.000000122561
 H    3.907433294221   -0.419214579180   -0.789552222785
 H    3.907432994759   -0.419205885852    0.789557905931
 C    5.734155516996    0.047688391193    0.000000664901
 H    6.092703229972    0.573110353946    0.892790442494
 H    6.116983088810   -0.980237997332    0.000006447532
 H    6.092703630314    0.573100610507   -0.892794686023
