15

 N   -3.065542758621   -0.094500163405   -0.000000122561
 H   -2.723472758621    0.455709836595    0.789549877439
 H   -2.723472758621    0.455709836595   -0.789550122561
 C   -4.550192758621   -0.011190163405   -0.000000122561
 H   -4.908742758621   -0.536600163405   -0.892790122561
 H   -4.933022758621    1.016739836595   -0.000000122561
 H   -4.908742758621   -0.536600163405    0.892789877439
RB   -0.490482758621   -0.015120163405   -0.000000122561
 N    4.407190735364    0.135857802915   -0.000000122561
 H    4.065123008223   -0.414353562545   -0.789552222785
 H    4.065122708762   -0.414344869216    0.789557905931
 C    5.891845230998    0.052549407828    0.000000664901
 H    6.250392943975    0.577971370582    0.892790442494
 H    6.274672802813   -0.975376980696    0.000006447532
 H    6.250393344317    0.577961627142   -0.892794686023
