15

 N   -3.297727054746   -0.101657584757   -0.000000122561
 H   -2.955657054746    0.448552415243    0.789549877439
 H   -2.955657054746    0.448552415243   -0.789550122561
 C   -4.782377054746   -0.018347584757   -0.000000122561
 H   -5.140927054746   -0.543757584757   -0.892790122561
 H   -5.165207054746    1.009582415243   -0.000000122561
 H   -5.140927054746   -0.543757584757    0.892789877439
RB   -0.722667054746   -0.022277584757   -0.000000122561
 N    5.274484162379    0.162593394410   -0.000000122561
 H    4.932416435238   -0.387617971049   -0.789552222785
 H    4.932416135777   -0.387609277720    0.789557905931
 C    6.759138658013    0.079284999324    0.000000664901
 H    7.117686370990    0.604706962077    0.892790442494
 H    7.141966229828   -0.948641389201    0.000006447532
 H    7.117686771332    0.604697218638   -0.892794686023
