15

 N   -3.339942381314   -0.102958934094   -0.000000122561
 H   -2.997872381314    0.447251065906    0.789549877439
 H   -2.997872381314    0.447251065906   -0.789550122561
 C   -4.824592381314   -0.019648934094   -0.000000122561
 H   -5.183142381314   -0.545058934094   -0.892790122561
 H   -5.207422381314    1.008281065906   -0.000000122561
 H   -5.183142381314   -0.545058934094    0.892789877439
RB   -0.764882381314   -0.023578934094   -0.000000122561
 N    5.432173876382    0.167454411046   -0.000000122561
 H    5.090106149241   -0.382756954414   -0.789552222785
 H    5.090105849780   -0.382748261085    0.789557905931
 C    6.916828372016    0.084146015959    0.000000664901
 H    7.275376084992    0.609567978713    0.892790442494
 H    7.299655943831   -0.943780372565    0.000006447532
 H    7.275376485335    0.609558235273   -0.892794686023
