15

 N   -3.403265371166   -0.104910958099   -0.000000122561
 H   -3.061195371166    0.445299041901    0.789549877439
 H   -3.061195371166    0.445299041901   -0.789550122561
 C   -4.887915371166   -0.021600958099   -0.000000122561
 H   -5.246465371166   -0.547010958099   -0.892790122561
 H   -5.270745371166    1.006329041901   -0.000000122561
 H   -5.246465371166   -0.547010958099    0.892789877439
RB   -0.828205371166   -0.025530958099   -0.000000122561
 N    5.668708447386    0.174745935999   -0.000000122561
 H    5.326640720245   -0.375465429460   -0.789552222785
 H    5.326640420784   -0.375456736132    0.789557905931
 C    7.153362943020    0.091437540913    0.000000664901
 H    7.511910655997    0.616859503666    0.892790442494
 H    7.536190514835   -0.936488847612    0.000006447532
 H    7.511911056339    0.616849760227   -0.892794686023
