15

 N   -3.424373034450   -0.105561632767   -0.000000122561
 H   -3.082303034450    0.444648367233    0.789549877439
 H   -3.082303034450    0.444648367233   -0.789550122561
 C   -4.909023034450   -0.022251632767   -0.000000122561
 H   -5.267573034450   -0.547661632767   -0.892790122561
 H   -5.291853034450    1.005678367233   -0.000000122561
 H   -5.267573034450   -0.547661632767    0.892789877439
RB   -0.849313034450   -0.026181632767   -0.000000122561
 N    5.747553304387    0.177176444317   -0.000000122561
 H    5.405485577247   -0.373034921143   -0.789552222785
 H    5.405485277785   -0.373026227814    0.789557905931
 C    7.232207800021    0.093868049231    0.000000664901
 H    7.590755512998    0.619290011984    0.892790442494
 H    7.615035371836   -0.934058339294    0.000006447532
 H    7.590755913340    0.619280268545   -0.892794686023
