15

 N   -3.466588361018   -0.106862982104   -0.000000122561
 H   -3.124518361018    0.443347017896    0.789549877439
 H   -3.124518361018    0.443347017896   -0.789550122561
 C   -4.951238361018   -0.023552982104   -0.000000122561
 H   -5.309788361018   -0.548962982104   -0.892790122561
 H   -5.334068361018    1.004377017896   -0.000000122561
 H   -5.309788361018   -0.548962982104    0.892789877439
RB   -0.891528361018   -0.027482982104   -0.000000122561
 N    5.905243018390    0.182037460952   -0.000000122561
 H    5.563175291249   -0.368173904507   -0.789552222785
 H    5.563174991788   -0.368165211178    0.789557905931
 C    7.389897514024    0.098729065866    0.000000664901
 H    7.748445227001    0.624151028620    0.892790442494
 H    7.772725085839   -0.929197322658    0.000006447532
 H    7.748445627343    0.624141285180   -0.892794686023
