15

 N   -3.508803687587   -0.108164331441   -0.000000122561
 H   -3.166733687587    0.442045668559    0.789549877439
 H   -3.166733687587    0.442045668559   -0.789550122561
 C   -4.993453687587   -0.024854331441   -0.000000122561
 H   -5.352003687587   -0.550264331441   -0.892790122561
 H   -5.376283687587    1.003075668559   -0.000000122561
 H   -5.352003687587   -0.550264331441    0.892789877439
RB   -0.933743687587   -0.028784331441   -0.000000122561
 N    6.062932732392    0.186898477588   -0.000000122561
 H    5.720865005252   -0.363312887872   -0.789552222785
 H    5.720864705791   -0.363304194543    0.789557905931
 C    7.547587228027    0.103590082502    0.000000664901
 H    7.906134941003    0.629012045255    0.892790442494
 H    7.930414799842   -0.924336306023    0.000006447532
 H    7.906135341345    0.629002301816   -0.892794686023
