15

 N   -3.572126677439   -0.110116355446   -0.000000122561
 H   -3.230056677439    0.440093644554    0.789549877439
 H   -3.230056677439    0.440093644554   -0.789550122561
 C   -5.056776677439   -0.026806355446   -0.000000122561
 H   -5.415326677439   -0.552216355446   -0.892790122561
 H   -5.439606677439    1.001123644554   -0.000000122561
 H   -5.415326677439   -0.552216355446    0.892789877439
RB   -0.997066677439   -0.030736355446   -0.000000122561
 N    6.299467303396    0.194190002541   -0.000000122561
 H    5.957399576256   -0.356021362918   -0.789552222785
 H    5.957399276795   -0.356012669589    0.789557905931
 C    7.784121799031    0.110881607455    0.000000664901
 H    8.142669512007    0.636303570208    0.892790442494
 H    8.166949370846   -0.917044781070    0.000006447532
 H    8.142669912350    0.636293826769   -0.892794686023
