15

 N   -3.593234340723   -0.110767030114   -0.000000122561
 H   -3.251164340723    0.439442969886    0.789549877439
 H   -3.251164340723    0.439442969886   -0.789550122561
 C   -5.077884340723   -0.027457030114   -0.000000122561
 H   -5.436434340723   -0.552867030114   -0.892790122561
 H   -5.460714340723    1.000472969886   -0.000000122561
 H   -5.436434340723   -0.552867030114    0.892789877439
RB   -1.018174340723   -0.031387030114   -0.000000122561
 N    6.378312160398    0.196620510859   -0.000000122561
 H    6.036244433257   -0.353590854600   -0.789552222785
 H    6.036244133796   -0.353582161272    0.789557905931
 C    7.862966656032    0.113312115773    0.000000664901
 H    8.221514369009    0.638734078526    0.892790442494
 H    8.245794227847   -0.914614272752    0.000006447532
 H    8.221514769351    0.638724335087   -0.892794686023
