15

 N   -3.762095646995   -0.115972427461   -0.000000122561
 H   -3.420025646995    0.434237572539    0.789549877439
 H   -3.420025646995    0.434237572539   -0.789550122561
 C   -5.246745646995   -0.032662427461   -0.000000122561
 H   -5.605295646995   -0.558072427461   -0.892790122561
 H   -5.629575646995    0.995267572539   -0.000000122561
 H   -5.605295646995   -0.558072427461    0.892789877439
RB   -1.187035646995   -0.036592427461   -0.000000122561
 N    7.009071016409    0.216064577401   -0.000000122561
 H    6.667003289268   -0.334146788058   -0.789552222785
 H    6.667002989807   -0.334138094729    0.789557905931
 C    8.493725512043    0.132756182315    0.000000664901
 H    8.852273225020    0.658178145068    0.892790442494
 H    8.876553083858   -0.895170206210    0.000006447532
 H    8.852273625362    0.658168401629   -0.892794686023
