15

 N   -3.783203310279   -0.116623102129   -0.000000122561
 H   -3.441133310279    0.433586897871    0.789549877439
 H   -3.441133310279    0.433586897871   -0.789550122561
 C   -5.267853310279   -0.033313102129   -0.000000122561
 H   -5.626403310279   -0.558723102129   -0.892790122561
 H   -5.650683310279    0.994616897871   -0.000000122561
 H   -5.626403310279   -0.558723102129    0.892789877439
RB   -1.208143310279   -0.037243102129   -0.000000122561
 N    7.087915873410    0.218495085719   -0.000000122561
 H    6.745848146270   -0.331716279740   -0.789552222785
 H    6.745847846808   -0.331707586412    0.789557905931
 C    8.572570369044    0.135186690633    0.000000664901
 H    8.931118082021    0.660608653386    0.892790442494
 H    8.955397940859   -0.892739697892    0.000006447532
 H    8.931118482363    0.660598909947   -0.892794686023
