15

 N   -3.804310973563   -0.117273776798   -0.000000122561
 H   -3.462240973563    0.432936223202    0.789549877439
 H   -3.462240973563    0.432936223202   -0.789550122561
 C   -5.288960973563   -0.033963776798   -0.000000122561
 H   -5.647510973563   -0.559373776798   -0.892790122561
 H   -5.671790973563    0.993966223202   -0.000000122561
 H   -5.647510973563   -0.559373776798    0.892789877439
RB   -1.229250973563   -0.037893776798   -0.000000122561
 N    7.166760730411    0.220925594037   -0.000000122561
 H    6.824693003271   -0.329285771423   -0.789552222785
 H    6.824692703810   -0.329277078094    0.789557905931
 C    8.651415226046    0.137617198950    0.000000664901
 H    9.009962939022    0.663039161704    0.892790442494
 H    9.034242797861   -0.890309189574    0.000006447532
 H    9.009963339364    0.663029418265   -0.892794686023
