15

 N   -3.867633963416   -0.119225800803   -0.000000122561
 H   -3.525563963416    0.430984199197    0.789549877439
 H   -3.525563963416    0.430984199197   -0.789550122561
 C   -5.352283963416   -0.035915800803   -0.000000122561
 H   -5.710833963416   -0.561325800803   -0.892790122561
 H   -5.735113963416    0.992014199197   -0.000000122561
 H   -5.710833963416   -0.561325800803    0.892789877439
RB   -1.292573963416   -0.039845800803   -0.000000122561
 N    7.403295301415    0.228217118990   -0.000000122561
 H    7.061227574275   -0.321994246469   -0.789552222785
 H    7.061227274814   -0.321985553141    0.789557905931
 C    8.887949797050    0.144908723904    0.000000664901
 H    9.246497510026    0.670330686657    0.892790442494
 H    9.270777368865   -0.883017664621    0.000006447532
 H    9.246497910369    0.670320943218   -0.892794686023
