15

 N   -3.909849289984   -0.120527150140   -0.000000122561
 H   -3.567779289984    0.429682849860    0.789549877439
 H   -3.567779289984    0.429682849860   -0.789550122561
 C   -5.394499289984   -0.037217150140   -0.000000122561
 H   -5.753049289984   -0.562627150140   -0.892790122561
 H   -5.777329289984    0.990712849860   -0.000000122561
 H   -5.753049289984   -0.562627150140    0.892789877439
RB   -1.334789289984   -0.041147150140   -0.000000122561
 N    7.560985015418    0.233078135626   -0.000000122561
 H    7.218917288278   -0.317133229834   -0.789552222785
 H    7.218916988816   -0.317124536505    0.789557905931
 C    9.045639511053    0.149769740539    0.000000664901
 H    9.404187224029    0.675191703293    0.892790442494
 H    9.428467082867   -0.878156647985    0.000006447532
 H    9.404187624371    0.675181959853   -0.892794686023
