15

 N   -3.930956953268   -0.121177824808   -0.000000122561
 H   -3.588886953268    0.429032175192    0.789549877439
 H   -3.588886953268    0.429032175192   -0.789550122561
 C   -5.415606953268   -0.037867824808   -0.000000122561
 H   -5.774156953268   -0.563277824808   -0.892790122561
 H   -5.798436953268    0.990062175192   -0.000000122561
 H   -5.774156953268   -0.563277824808    0.892789877439
RB   -1.355896953268   -0.041797824808   -0.000000122561
 N    7.639829872420    0.235508643943   -0.000000122561
 H    7.297762145279   -0.314702721516   -0.789552222785
 H    7.297761845818   -0.314694028187    0.789557905931
 C    9.124484368054    0.152200248857    0.000000664901
 H    9.483032081030    0.677622211611    0.892790442494
 H    9.507311939869   -0.875726139667    0.000006447532
 H    9.483032481373    0.677612468171   -0.892794686023
