15

 N   -3.973172279836   -0.122479174145   -0.000000122561
 H   -3.631102279836    0.427730825855    0.789549877439
 H   -3.631102279836    0.427730825855   -0.789550122561
 C   -5.457822279836   -0.039169174145   -0.000000122561
 H   -5.816372279836   -0.564579174145   -0.892790122561
 H   -5.840652279836    0.988760825855   -0.000000122561
 H   -5.816372279836   -0.564579174145    0.892789877439
RB   -1.398112279836   -0.043099174145   -0.000000122561
 N    7.797519586422    0.240369660579   -0.000000122561
 H    7.455451859282   -0.309841704881   -0.789552222785
 H    7.455451559820   -0.309833011552    0.789557905931
 C    9.282174082057    0.157061265493    0.000000664901
 H    9.640721795033    0.682483228246    0.892790442494
 H    9.665001653871   -0.870865123032    0.000006447532
 H    9.640722195375    0.682473484807   -0.892794686023
