15

 N   -4.015387606404   -0.123780523481   -0.000000122561
 H   -3.673317606404    0.426429476519    0.789549877439
 H   -3.673317606404    0.426429476519   -0.789550122561
 C   -5.500037606404   -0.040470523481   -0.000000122561
 H   -5.858587606404   -0.565880523481   -0.892790122561
 H   -5.882867606404    0.987459476519   -0.000000122561
 H   -5.858587606404   -0.565880523481    0.892789877439
RB   -1.440327606404   -0.044400523481   -0.000000122561
 N    7.955209300425    0.245230677215   -0.000000122561
 H    7.613141573285   -0.304980688245   -0.789552222785
 H    7.613141273823   -0.304971994916    0.789557905931
 C    9.439863796059    0.161922282128    0.000000664901
 H    9.798411509036    0.687344244882    0.892790442494
 H    9.822691367874   -0.866004106396    0.000006447532
 H    9.798411909378    0.687334501442   -0.892794686023
