15

 N   -4.057602932972   -0.125081872818   -0.000000122561
 H   -3.715532932972    0.425128127182    0.789549877439
 H   -3.715532932972    0.425128127182   -0.789550122561
 C   -5.542252932972   -0.041771872818   -0.000000122561
 H   -5.900802932972   -0.567181872818   -0.892790122561
 H   -5.925082932972    0.986158127182   -0.000000122561
 H   -5.900802932972   -0.567181872818    0.892789877439
RB   -1.482542932972   -0.045701872818   -0.000000122561
 N    8.112899014428    0.250091693850   -0.000000122561
 H    7.770831287287   -0.300119671609   -0.789552222785
 H    7.770830987826   -0.300110978281    0.789557905931
 C    9.597553510062    0.166783298764    0.000000664901
 H    9.956101223039    0.692205261517    0.892790442494
 H    9.980381081877   -0.861143089761    0.000006447532
 H    9.956101623381    0.692195518078   -0.892794686023
