15

 N   -4.078710596256   -0.125732547486   -0.000000122561
 H   -3.736640596256    0.424477452514    0.789549877439
 H   -3.736640596256    0.424477452514   -0.789550122561
 C   -5.563360596256   -0.042422547486   -0.000000122561
 H   -5.921910596256   -0.567832547486   -0.892790122561
 H   -5.946190596256    0.985507452514   -0.000000122561
 H   -5.921910596256   -0.567832547486    0.892789877439
RB   -1.503650596256   -0.046352547486   -0.000000122561
 N    8.191743871429    0.252522202168   -0.000000122561
 H    7.849676144289   -0.297689163292   -0.789552222785
 H    7.849675844827   -0.297680469963    0.789557905931
 C    9.676398367063    0.169213807082    0.000000664901
 H   10.034946080040    0.694635769835    0.892790442494
 H   10.059225938878   -0.858712581443    0.000006447532
 H   10.034946480382    0.694626026396   -0.892794686023
