16

 C    1.873171320616    1.044081741083    2.617780474041
 H    1.703071320616    0.284781741083    3.395130474041
 H    1.519961320616    2.013201741083    2.987600474041
 H    2.959751320616    1.086961741083    2.481870474041
 C    1.096561320616    0.620301741083    1.377610474041
 O    0.386391320616    1.497591741083    0.793850474041
 O    1.198091320616   -0.605318258917    1.051190474041
RB   -1.425618679384   -0.896468258917    0.552230474041
RB    0.579881320616    0.425451741083   -1.676859525959
 C    0.147464821586    0.085002934749    0.206000033892
 O    0.095662752254    1.333742098839    0.435446183740
 O    0.947382716531   -0.746555416066    0.742300679648
 C   -0.867570266512   -0.502239692189   -0.766386973136
 H   -1.287948691217   -1.407797205784   -0.304861695697
 H   -0.445165965807   -0.829279466173   -1.723253988492
 H   -1.680876552156    0.206787032462   -0.957504430118
