16

 C    1.933977082914    1.078376541495    2.692841808168
 H    1.763877082914    0.319076541495    3.470191808168
 H    1.580767082914    2.047496541495    3.062661808168
 H    3.020557082914    1.121256541495    2.556931808168
 C    1.157367082914    0.654596541495    1.452671808168
 O    0.447197082914    1.531886541495    0.868911808168
 O    1.258897082914   -0.571023458505    1.126251808168
RB   -1.364812917086   -0.862173458505    0.627291808168
RB    0.640687082914    0.459746541495   -1.601798191832
 C   -0.088322072063   -0.047983141819   -0.085066894527
 O   -0.140124141396    1.200756022271    0.144379255321
 O    0.711595822882   -0.879541492633    0.451233751229
 C   -1.103357160162   -0.635225768756   -1.057453901555
 H   -1.524139294361   -1.540475617754   -0.595693012642
 H   -0.680867451590   -0.962750040832   -2.014117473273
 H   -1.916382301977    0.074010088345   -1.248991132082
