16

 C    1.946138236542    1.085235500551    2.707854074394
 H    1.776038236542    0.325935500551    3.485204074394
 H    1.592928236542    2.054355500551    3.077674074394
 H    3.032718236542    1.128115500551    2.571944074394
 C    1.169528236542    0.661455500551    1.467684074394
 O    0.459358236542    1.538745500551    0.883924074394
 O    1.271058236542   -0.564164499449    1.141264074394
RB   -1.352651763458   -0.855314499449    0.642304074394
RB    0.652848236542    0.466605500551   -1.586785925606
 C   -0.135479449624   -0.074580358160   -0.143280280811
 O   -0.187281518957    1.174158805930    0.086165869038
 O    0.664438445320   -0.906138708974    0.393020364946
 C   -1.150514537723   -0.661822985097   -1.115667287838
 H   -1.571381042889   -1.567008502073   -0.653857178824
 H   -0.728007004475   -0.989448515173   -2.072288314416
 H   -1.963480898596    0.047456551157   -1.307292256044
