16

 C    1.982621699925    1.105812375519    2.752890871791
 H    1.812521699925    0.346512375519    3.530240871791
 H    1.629411699925    2.074932375519    3.122710871791
 H    3.069201699925    1.148692375519    2.616980871791
 C    1.206011699925    0.682032375519    1.512720871791
 O    0.495841699925    1.559322375519    0.928960871791
 O    1.307541699925   -0.543587624481    1.186300871791
RB   -1.316168300075   -0.834737624481    0.687340871791
RB    0.689331699925    0.487182375519   -1.541749128209
 C   -0.276951579810   -0.154372009380   -0.317920440942
 O   -0.328753649142    1.094367154711   -0.088474291093
 O    0.522966315135   -0.985930360194    0.218380204815
 C   -1.291986667908   -0.741614636317   -1.290307447969
 H   -1.713114044644   -1.646601168228   -0.828345196564
 H   -0.869424075425   -1.069553258713   -2.246796866350
 H   -2.104771226075   -0.032200105625   -1.482203718252
