16

 C    2.031266323966    1.133248203354    2.812939931812
 H    1.861166323966    0.373948203354    3.590289931812
 H    1.678056323966    2.102368203354    3.182759931812
 H    3.117846323966    1.176128203354    2.677029931812
 C    1.254656323966    0.709468203354    1.572769931812
 O    0.544486323966    1.586758203354    0.989009931812
 O    1.356186323966   -0.516151796646    1.246349931812
RB   -1.267523676034   -0.807301796646    0.747389931812
RB    0.737976323966    0.514618203354   -1.481700068188
 C   -0.465581080525   -0.260760883128   -0.550773990958
 O   -0.517383149858    0.987978280962   -0.321327841110
 O    0.334336814419   -1.092319233942   -0.014473345202
 C   -1.480616168624   -0.848003510065   -1.523160997986
 H   -1.902110622480   -1.752709859367   -1.060984777262
 H   -1.057976239362   -1.176382707599   -2.479465073539
 H   -2.293144769522   -0.138399179103   -1.715439075529
