16

 C    2.079910955727    1.160684024388    2.872988987882
 H    1.909810955727    0.401384024388    3.650338987882
 H    1.726700955727    2.129804024388    3.242808987882
 H    3.166490955727    1.203564024388    2.737078987882
 C    1.303300955727    0.736904024388    1.632818987882
 O    0.593130955727    1.614194024388    1.049058987882
 O    1.404830955727   -0.488715975612    1.306398987882
RB   -1.218879044273   -0.779865975612    0.807438987882
RB    0.786620955727    0.542054024388   -1.421651012118
 C   -0.654210573522   -0.367149763678   -0.783627544925
 O   -0.706012642855    0.881589400413   -0.554181395077
 O    0.145707321422   -1.198708114492   -0.247326899169
 C   -1.669245661621   -0.954392390615   -1.756014551952
 H   -2.091131165891   -1.858800018228   -1.293610533262
 H   -1.246523522467   -1.283240958826   -2.712120981360
 H   -2.481501409707   -0.244586060456   -1.948699440480
