16

 C    2.128555595987    1.188119837925    2.933038039608
 H    1.958455595987    0.428819837925    3.710388039608
 H    1.775345595987    2.157239837925    3.302858039608
 H    3.215135595987    1.230999837925    2.797128039608
 C    1.351945595987    0.764339837925    1.692868039608
 O    0.641775595987    1.641629837925    1.109108039608
 O    1.453475595987   -0.461280162075    1.366448039608
RB   -1.170234404013   -0.752430162075    0.867488039608
RB    0.835265595987    0.569489837925   -1.361601960392
 C   -0.842840058019   -0.473538651725   -1.016481103236
 O   -0.894642127352    0.775200512365   -0.787034953388
 O   -0.042922163075   -1.305097002539   -0.480180457480
 C   -1.857875146118   -1.060781278662   -1.988868110264
 H   -2.280178101508   -1.964869743021   -1.526221080032
 H   -1.435065449214   -1.390130931112   -2.944763323525
 H   -2.669839416238   -0.350759535862   -2.181987352445
