16

 C    2.225844905696    1.242991439207    3.053136128166
 H    2.055744905696    0.483691439207    3.830486128166
 H    1.872634905696    2.212111439207    3.422956128166
 H    3.312424905696    1.285871439207    2.917226128166
 C    1.449234905696    0.819211439207    1.812966128166
 O    0.739064905696    1.696501439207    1.229206128166
 O    1.550764905696   -0.406408560793    1.486546128166
RB   -1.072945094304   -0.697558560793    0.987586128166
RB    0.932554905696    0.624361439207   -1.241503871834
 C   -1.220098997825   -0.686316453609   -1.482188234752
 O   -1.271901067158    0.562422710481   -1.252742084904
 O   -0.420181102881   -1.517874804423   -0.945887588996
 C   -2.235134085924   -1.273559080547   -2.454575241780
 H   -2.658362612206   -2.176938887015   -1.991390017591
 H   -1.812131001943   -1.604019828048   -3.410001312914
 H   -3.046451339623   -0.563060551167   -2.648657818277
