16

 C    2.274489577335    1.270427224992    3.113185163898
 H    2.104389577335    0.511127224992    3.890535163898
 H    1.921279577335    2.239547224992    3.483005163898
 H    3.361069577335    1.313307224992    2.977275163898
 C    1.497879577335    0.846647224992    1.873015163898
 O    0.787709577335    1.723937224992    1.289255163898
 O    1.599409577335   -0.378972775008    1.546595163898
RB   -1.024300422665   -0.670122775008    1.047635163898
RB    0.981199577335    0.651797224992   -1.181454836102
 C   -1.408728450944   -0.792705369409   -1.715041809058
 O   -1.460530520277    0.456033794681   -1.485595659210
 O   -0.608810555999   -1.624263720223   -1.178741163302
 C   -2.423763539043   -1.379947996346   -2.687428816086
 H   -2.847506994681   -2.282932946850   -2.223944539041
 H   -2.000653311874   -1.711026942784   -3.642593387765
 H   -3.234720384122   -0.669184705811   -2.882047502618
