16

 C    2.298811917912    1.284145113665    3.143209679345
 H    2.128711917912    0.524845113665    3.920559679345
 H    1.945601917912    2.253265113665    3.513029679345
 H    3.385391917912    1.327025113665    3.007299679345
 C    1.522201917912    0.860365113665    1.903039679345
 O    0.812031917912    1.737655113665    1.319279679345
 O    1.623731917912   -0.365254886335    1.576619679345
RB   -0.999978082088   -0.656404886335    1.077659679345
RB    1.005521917912    0.665515113665   -1.151430320655
 C   -1.503043172746   -0.845899831527   -1.831468598630
 O   -1.554845242078    0.402839332563   -1.602022448782
 O   -0.703125277801   -1.677458182341   -1.295167952874
 C   -2.518078260844   -1.433142458464   -2.803855605657
 H   -2.942093963220   -2.335918471449   -2.340213322621
 H   -2.094911515031   -1.764548267065   -3.758881776693
 H   -3.328844425450   -0.722239329347   -2.998757786874
