16

 C    2.310973089470    1.291004056875    3.158221936423
 H    2.140873089470    0.531704056875    3.935571936423
 H    1.957763089470    2.260124056875    3.528041936423
 H    3.397553089470    1.333884056875    3.022311936423
 C    1.534363089470    0.867224056875    1.918051936423
 O    0.824193089470    1.744514056875    1.334291936423
 O    1.635893089470   -0.358395943125    1.591631936423
RB   -0.987816910530   -0.649545943125    1.092671936423
RB    1.017683089470    0.672374056875   -1.136418063577
 C   -1.550200532377   -0.872497063713   -1.889681994061
 O   -1.602002601709    0.376242100377   -1.660235844212
 O   -0.750282637432   -1.704055414527   -1.353381348304
 C   -2.565235620476   -1.459739690650   -2.862069001088
 H   -2.989391391614   -2.362408159937   -2.398345453632
 H   -2.142039830968   -1.791313671548   -3.817023927268
 H   -3.375903646482   -0.748764654115   -3.057117051410
