16

 C    2.335295435251    1.304721940929    3.188246449228
 H    2.165195435251    0.545421940929    3.965596449228
 H    1.982085435251    2.273841940929    3.558066449228
 H    3.421875435251    1.347601940929    3.052336449228
 C    1.558685435251    0.880941940929    1.948076449228
 O    0.848515435251    1.758231940929    1.364316449228
 O    1.660215435251   -0.344678059071    1.621656449228
RB   -0.963494564749   -0.635828059071    1.122696449228
RB    1.042005435251    0.686091940929   -1.106393550772
 C   -1.644515248975   -0.925691530451   -2.006108786274
 O   -1.696317318307    0.323047633639   -1.776662636426
 O   -0.844597354030   -1.757249881265   -1.469808140518
 C   -2.659550337073   -1.512934157389   -2.978495793302
 H   -3.083994525135   -2.415381081785   -2.514604974284
 H   -2.236294817680   -1.844854432740   -3.933303935398
 H   -3.470016209989   -0.801811137815   -3.173844232693
