16

 C    2.371778960989    1.325298760728    3.233283214852
 H    2.201678960989    0.565998760728    4.010633214852
 H    2.018568960989    2.294418760728    3.603103214852
 H    3.458358960989    1.368178760728    3.097373214852
 C    1.595168960989    0.901518760728    1.993113214852
 O    0.884998960989    1.778808760728    1.409353214852
 O    1.696698960989   -0.324101239272    1.666693214852
RB   -0.927011039011   -0.615251239272    1.167733214852
RB    1.078488960989    0.706668760728   -1.061356785148
 C   -1.785987316805   -1.005483236839   -2.180748978178
 O   -1.837789386137    0.243255927251   -1.951302828330
 O   -0.986069421860   -1.837041587654   -1.644448332422
 C   -2.801022404904   -1.592725863777   -3.153135985206
 H   -3.225921177311   -2.494823328117   -2.688981689591
 H   -2.377672946101   -1.925191971709   -4.107712548352
 H   -3.611169452069   -0.881369827547   -3.348957956877
