16

 C    2.444746040925    1.366452374988    3.323356731695
 H    2.274646040925    0.607152374988    4.100706731695
 H    2.091536040925    2.335572374988    3.693176731695
 H    3.531326040925    1.409332374988    3.187446731695
 C    1.668136040925    0.942672374988    2.083186731695
 O    0.957966040925    1.819962374988    1.499426731695
 O    1.769666040925   -0.282947625012    1.756766731695
RB   -0.854043959075   -0.574097625012    1.257806731695
RB    1.151456040925    0.747822374988   -0.971283268305
 C   -2.068931424005   -1.165066674955   -2.530029376391
 O   -2.120733493338    0.083672489135   -2.300583226542
 O   -1.269013529061   -1.996625025769   -1.993728730635
 C   -3.083966512104   -1.752309301893   -3.502416383418
 H   -3.509862903195   -2.653638669625   -3.037684582248
 H   -2.660411767751   -2.085973388317   -4.456483754240
 H   -3.893412993136   -1.040442858193   -3.699277892047
