16

 C    2.456907225006    1.373311307049    3.338368982435
 H    2.286807225006    0.614011307049    4.115718982435
 H    2.103697225006    2.342431307049    3.708188982435
 H    3.543487225006    1.416191307049    3.202458982435
 C    1.680297225006    0.949531307049    2.098198982435
 O    0.970127225006    1.826821307049    1.514438982435
 O    1.781827225006   -0.276088692951    1.771778982435
RB   -0.841882774994   -0.567238692951    1.272818982435
RB    1.163617225006    0.754681307049   -0.956271017565
 C   -2.116088771113   -1.191663918290   -2.588242778161
 O   -2.167890840446    0.057075245800   -2.358796628312
 O   -1.316170876169   -2.023222269104   -2.051942132404
 C   -3.131123859212   -1.778906545228   -3.560629785188
 H   -3.557199238459   -2.680097932838   -3.095794474357
 H   -2.707532410212   -2.112785583278   -4.514605657202
 H   -3.940444519946   -1.066948666879   -3.757677851576
