16

 C    2.493390785056    1.393888096259    3.383405730716
 H    2.323290785056    0.634588096259    4.160755730716
 H    2.140180785056    2.363008096259    3.753225730716
 H    3.579970785056    1.436768096259    3.247495730716
 C    1.716780785056    0.970108096259    2.143235730716
 O    1.006610785056    1.847398096259    1.559475730716
 O    1.818310785056   -0.255511903741    1.816815730716
RB   -0.805399214944   -0.546661903741    1.317855730716
RB    1.200100785056    0.775258096259   -0.911234269284
 C   -2.257560804632   -1.271455655268   -2.762882987407
 O   -2.309362873964   -0.022716491178   -2.533436837559
 O   -1.457642909687   -2.103014006082   -2.226582341651
 C   -3.272595892731   -1.858698282206   -3.735269994435
 H   -3.699232501981   -2.759456684371   -3.270110326497
 H   -2.848889603884   -2.193251347513   -4.688958685458
 H   -4.081521782490   -1.146453981013   -3.932903122213
