16

 C    2.505551974490    1.400747023536    3.398417978757
 H    2.335451974490    0.641447023536    4.175767978757
 H    2.152341974490    2.369867023536    3.768237978757
 H    3.592131974490    1.443627023536    3.262507978757
 C    1.728941974490    0.976967023536    2.158247978757
 O    1.018771974490    1.854257023536    1.574487978757
 O    1.830471974490   -0.248652976464    1.831827978757
RB   -0.793238025510   -0.539802976464    1.332867978757
RB    1.212261974490    0.782117023536   -0.896222021243
 C   -2.304718146387   -1.298052903387   -2.821096391876
 O   -2.356520215720   -0.049313739297   -2.591650242027
 O   -1.504800251443   -2.129611254201   -2.284795746119
 C   -3.319753234486   -1.885295530324   -3.793483398903
 H   -3.746585470913   -2.785902886471   -3.328210743248
 H   -2.896007005262   -2.220083551536   -4.747071887808
 H   -4.128541429428   -1.172951489852   -3.991320495087
