16

 C    2.517713165378    1.407605949512    3.413430226066
 H    2.347613165378    0.648305949512    4.190780226066
 H    2.164503165378    2.376725949512    3.783250226066
 H    3.604293165378    1.450485949512    3.277520226066
 C    1.741103165378    0.983825949512    2.173260226066
 O    1.030933165378    1.861115949512    1.589500226066
 O    1.842633165378   -0.241794050488    1.846840226066
RB   -0.781076834622   -0.532944050488    1.347880226066
RB    1.224423165378    0.788975949512   -0.881209773934
 C   -2.351875486688   -1.324650152807   -2.879309797076
 O   -2.403677556021   -0.075910988717   -2.649863647228
 O   -1.551957591744   -2.156208503621   -2.343009151320
 C   -3.366910574787   -1.911892779744   -3.851696804104
 H   -3.793942960654   -2.812345533492   -3.386308587891
 H   -2.943123529629   -2.246921194241   -4.805182721113
 H   -4.175557843668   -1.199446747191   -4.049742602166
