16

 C    2.529874357772    1.414464874139    3.428442472617
 H    2.359774357772    0.655164874139    4.205792472617
 H    2.176664357772    2.383584874139    3.798262472617
 H    3.616454357772    1.457344874139    3.292532472617
 C    1.753264357772    0.990684874139    2.188272472617
 O    1.043094357772    1.867974874139    1.604512472617
 O    1.854794357772   -0.234935125861    1.861852472617
RB   -0.768915642228   -0.526085125861    1.362892472617
RB    1.236584357772    0.795834874139   -0.866197527383
 C   -2.399032825484   -1.351247403575   -2.937523203034
 O   -2.450834894816   -0.102508239485   -2.708077053186
 O   -1.599114930539   -2.182805754390   -2.401222557278
 C   -3.414067913583   -1.938490030513   -3.909910210062
 H   -3.841305129752   -2.838784498442   -3.444403771615
 H   -2.990239147931   -2.273764466578   -4.863291100382
 H   -4.222570910116   -1.225939675956   -4.108169610137
