16

 C    2.554196747293    1.428182719153    3.458466963341
 H    2.384096747293    0.668882719153    4.235816963341
 H    2.200986747293    2.397302719153    3.828286963341
 H    3.640776747293    1.471062719153    3.322556963341
 C    1.777586747293    1.004402719153    2.218296963341
 O    1.067416747293    1.881692719153    1.634536963341
 O    1.879116747293   -0.221217280847    1.891876963341
RB   -0.744593252707   -0.512367280847    1.392916963341
RB    1.260906747293    0.809552719153   -0.836173036659
 C   -2.493347498342   -1.404441909354   -3.053950017329
 O   -2.545149567674   -0.155702745263   -2.824503867481
 O   -1.693429603397   -2.236000260168   -2.517649371573
 C   -3.508382586441   -1.991684536291   -4.026337024356
 H   -3.936044178152   -2.891650843215   -3.560585780155
 H   -3.084467543606   -2.327468709711   -4.979500136021
 H   -4.316586511287   -1.278918221497   -4.225039035563
