16

 C    2.578519143510    1.441900558159    3.488491450702
 H    2.408419143510    0.682600558159    4.265841450702
 H    2.225309143510    2.411020558159    3.858311450702
 H    3.665099143510    1.484780558159    3.352581450702
 C    1.801909143510    1.018120558159    2.248321450702
 O    1.091739143510    1.895410558159    1.664561450702
 O    1.903439143510   -0.207499441841    1.921901450702
RB   -0.720270856490   -0.498649441841    1.422941450702
RB    1.285229143510    0.823270558159   -0.806148549298
 C   -2.587662164503   -1.457636421139   -3.170376834986
 O   -2.639464233836   -0.208897257049   -2.940930685138
 O   -1.787744269558   -2.289194771954   -2.634076189230
 C   -3.602697252602   -2.044879048077   -4.142763842014
 H   -4.030804042783   -2.944500775615   -3.676755971220
 H   -3.178691932697   -2.381197999417   -5.095698227878
 H   -4.410587195435   -1.331886434973   -4.341930271987
