16

 C    2.602841546929    1.455618390696    3.518515934453
 H    2.432741546929    0.696318390696    4.295865934453
 H    2.249631546929    2.424738390696    3.888335934453
 H    3.689421546929    1.498498390696    3.382605934453
 C    1.826231546929    1.031838390696    2.278345934453
 O    1.116061546929    1.909128390696    1.694585934453
 O    1.927761546929   -0.193781609304    1.951925934453
RB   -0.695948453071   -0.484931609304    1.452965934453
RB    1.309551546929    0.836988390696   -0.776124065547
 C   -2.681976823463   -1.510830939394   -3.286803656254
 O   -2.733778892796   -0.262091775304   -3.057357506406
 O   -1.882058928518   -2.342389290208   -2.750503010498
 C   -3.697011911562   -2.098073566331   -4.259190663281
 H   -4.125586293749   -2.997333033064   -3.792913468337
 H   -3.272912031192   -2.434954227163   -5.211884530128
 H   -4.504571819051   -1.384843557213   -4.458844971547
