16

 C    2.615002751511    1.462477304382    3.533528174890
 H    2.444902751511    0.703177304382    4.310878174890
 H    2.261792751511    2.431597304382    3.903348174890
 H    3.701582751511    1.505357304382    3.397618174890
 C    1.838392751511    1.038697304382    2.293358174890
 O    1.128222751511    1.915987304382    1.709598174890
 O    1.939922751511   -0.186922695618    1.966938174890
RB   -0.683787248489   -0.478072695618    1.467978174890
RB    1.321712751511    0.843847304382   -0.761111825110
 C   -2.729134150071   -1.537428201104   -3.345017068326
 O   -2.780936219403   -0.288689037014   -3.115570918478
 O   -1.929216255126   -2.368986551918   -2.808716422570
 C   -3.744169238170   -2.124670828042   -4.317404075354
 H   -4.172986348477   -3.023742103275   -3.850987158788
 H   -3.320020375321   -2.461843086607   -5.269972971706
 H   -4.551557718457   -1.411317701317   -4.517311682491
