16

 C    2.651486377655    1.483054034273    3.578564890001
 H    2.481386377655    0.723754034273    4.355914890001
 H    2.298276377655    2.452174034273    3.948384890001
 H    3.738066377655    1.525934034273    3.442654890001
 C    1.874876377655    1.059274034273    2.338394890001
 O    1.164706377655    1.936564034273    1.754634890001
 O    1.976406377655   -0.166345965727    2.011974890001
RB   -0.647303622345   -0.457495965727    1.513014890001
RB    1.358196377655    0.864424034273   -0.716075109999
 C   -2.870606117494   -1.617219997402   -3.519657310743
 O   -2.922408186827   -0.368480833311   -3.290211160894
 O   -2.070688222549   -2.448778348216   -2.983356664987
 C   -3.885641205593   -2.204462624339   -4.492044317770
 H   -4.315225066123   -3.102938790692   -4.025186419296
 H   -3.461338080238   -2.542556065028   -5.444217923410
 H   -4.692487695111   -1.490721100819   -4.692752246998
