16

 C    2.700131244679    1.510489645101    3.638613827437
 H    2.530031244679    0.751189645101    4.415963827437
 H    2.346921244679    2.479609645101    4.008433827437
 H    3.786711244679    1.553369645101    3.502703827437
 C    1.923521244679    1.086709645101    2.398443827437
 O    1.213351244679    1.963999645101    1.814683827437
 O    2.025051244679   -0.138910354899    2.072023827437
RB   -0.598658755321   -0.430060354899    1.573063827437
RB    1.406841244679    0.891859645101   -0.656026172563
 C   -3.059235375228   -1.723609088157   -3.752510983344
 O   -3.111037444561   -0.474869924066   -3.523064833496
 O   -2.259317480283   -2.555167438971   -3.216210337588
 C   -4.074270463327   -2.310851715094   -4.724897990371
 H   -4.504976705143   -3.208455014574   -4.257395624470
 H   -3.649742807719   -2.650293757090   -5.676491528522
 H   -4.880322284210   -1.596543069021   -4.926777937611
