28

 P   -1.037625723613    1.708591522797   -0.366949793298
 O   -2.261075723613    2.413891522797   -0.896379793298
 O    0.059874276387    1.053121522797   -1.236929793298
 O   -0.208445723613    2.542011522797    0.842530206702
 O   -1.461645723613    0.461831522797    0.716600206702
 C    0.932174276387    3.293241522797    0.390390206702
 H    0.690394276387    3.927831522797   -0.473259793298
 H    1.756034276387    2.615471522797    0.100810206702
 H    1.246454276387    3.920641522797    1.233440206702
 C   -2.769335723613   -0.111648477203    0.579860206702
 H   -2.887395723613   -0.593108477203   -0.409389793298
 H   -3.549465723613    0.651021522797    0.688000206702
 H   -2.851195723613   -0.867768477203    1.370680206702
 K    1.177214276387    0.328811522797    1.114190206702
 K   -0.527865723613   -1.398048477203   -0.884549793298
 P    0.835219409517   -1.375299640008    0.295371721631
 O    0.006035269269   -2.208720800848   -0.914113067163
 O    1.259233337936   -0.128538844538   -0.788181020181
 O    2.058668348109   -2.080610416731    0.824792302827
 O   -0.262280745677   -0.719832997492    1.165354281225
 C   -1.134580364402   -2.959944464678   -0.461973318824
 H   -0.892797675244   -3.594539200373    0.401685422550
 H   -1.958438192370   -2.282174618890   -0.172384299114
 H   -1.448864233095   -3.587345654595   -1.305026775711
 C    2.566930036829    0.444940525584   -0.651442005090
 H    2.684992666015    0.926398629387    0.337800917489
 H    3.347064257271   -0.317738278478   -0.759585254675
 H    2.648789980019    1.201055125506   -1.442260324228
