28

 P   -1.057086794597    1.740636791123   -0.373832095411
 O   -2.280536794597    2.445936791123   -0.903262095411
 O    0.040413205403    1.085166791123   -1.243812095411
 O   -0.227906794597    2.574056791123    0.835647904589
 O   -1.481106794597    0.493876791123    0.709717904589
 C    0.912713205403    3.325286791123    0.383507904589
 H    0.670933205403    3.959876791123   -0.480142095411
 H    1.736573205403    2.647516791123    0.093927904589
 H    1.226993205403    3.952686791123    1.226557904589
 C   -2.788796794597   -0.079603208877    0.572977904589
 H   -2.906856794597   -0.561063208877   -0.416272095411
 H   -3.568926794597    0.683066791123    0.681117904589
 H   -2.870656794597   -0.835723208877    1.363797904589
 K    1.157753205403    0.360856791123    1.107307904589
 K   -0.547326794597   -1.366003208877   -0.891432095411
 P    0.866812851846   -1.427322487962    0.306544571011
 O    0.037628711598   -2.260743648802   -0.902940217783
 O    1.290826780265   -0.180561692493   -0.777008170800
 O    2.090261790439   -2.132633264686    0.835965152208
 O   -0.230687303348   -0.771855845447    1.176527130606
 C   -1.102986922072   -3.011967312632   -0.450800469443
 H   -0.861204232915   -3.646562048328    0.412858271931
 H   -1.926844750040   -2.334197466844   -0.161211449733
 H   -1.417270790765   -3.639368502550   -1.293853926330
 C    2.598523479159    0.392917677629   -0.640269155709
 H    2.716586108344    0.874375781433    0.348973766870
 H    3.378657699600   -0.369761126433   -0.748412405295
 H    2.680383422348    1.149032277551   -1.431087474848
