28

 P   -1.096008936563    1.804727327775   -0.387596699635
 O   -2.319458936563    2.510027327775   -0.917026699635
 O    0.001491063437    1.149257327775   -1.257576699635
 O   -0.266828936563    2.638147327775    0.821883300365
 O   -1.520028936563    0.557967327775    0.695953300365
 C    0.873791063437    3.389377327775    0.369743300365
 H    0.632011063437    4.023967327775   -0.493906699635
 H    1.697651063437    2.711607327775    0.080163300365
 H    1.188071063437    4.016777327775    1.212793300365
 C   -2.827718936563   -0.015512672225    0.559213300365
 H   -2.945778936563   -0.496972672225   -0.430036699635
 H   -3.607848936563    0.747157327775    0.667353300365
 H   -2.909578936563   -0.771632672225    1.350033300365
 K    1.118831063437    0.424947327775    1.093543300365
 K   -0.586248936563   -1.301912672225   -0.905196699635
 P    0.929999736506   -1.531368183871    0.328890269773
 O    0.100815596258   -2.364789344711   -0.880594519022
 O    1.354013664925   -0.284607388402   -0.754662472039
 O    2.153448675098   -2.236678960595    0.858310850969
 O   -0.167500418688   -0.875901541356    1.198872829367
 C   -1.039800037413   -3.116013008541   -0.428454770682
 H   -0.798017348255   -3.750607744236    0.435203970692
 H   -1.863657865381   -2.438243162753   -0.138865750972
 H   -1.354083906106   -3.743414198459   -1.271508227569
 C    2.661710363818    0.288871981720   -0.617923456948
 H    2.779772993004    0.770330085524    0.371319465631
 H    3.441844584260   -0.473806822342   -0.726066706534
 H    2.743570307008    1.044986581642   -1.408741776087
