28

 P   -1.173853220496    1.932908401078   -0.415125908085
 O   -2.397303220496    2.638208401078   -0.944555908085
 O   -0.076353220496    1.277438401078   -1.285105908085
 O   -0.344673220496    2.766328401078    0.794354091915
 O   -1.597873220496    0.686148401078    0.668424091915
 C    0.795946779504    3.517558401078    0.342214091915
 H    0.554166779504    4.152148401078   -0.521435908085
 H    1.619806779504    2.839788401078    0.052634091915
 H    1.110226779504    4.144958401078    1.185264091915
 C   -2.905563220496    0.112668401078    0.531684091915
 H   -3.023623220496   -0.368791598922   -0.457565908085
 H   -3.685693220496    0.875338401078    0.639824091915
 H   -2.987423220496   -0.643451598922    1.322504091915
 K    1.040986779504    0.553128401078    1.066014091915
 K   -0.664093220496   -1.173731598922   -0.932725908085
 P    1.056373505825   -1.739459575689    0.373581667295
 O    0.227189365576   -2.572880736529   -0.835903121499
 O    1.480387434244   -0.492698780220   -0.709971074516
 O    2.279822444417   -2.444770352413    0.903002248491
 O   -0.041126649370   -1.083992933174    1.243564226889
 C   -0.913426268094   -3.324104400359   -0.383763373160
 H   -0.671643578937   -3.958699136054    0.479895368214
 H   -1.737284096062   -2.646334554571   -0.094174353450
 H   -1.227710136787   -3.951505590277   -1.226816830046
 C    2.788084133137    0.080780589902   -0.573232059425
 H    2.906146762323    0.562238693706    0.416010863153
 H    3.568218353579   -0.681898214160   -0.681375309011
 H    2.869944076327    0.836895189824   -1.364050378564
