28

 P   -1.310080717379    2.157225279360   -0.463302022871
 O   -2.533530717379    2.862525279360   -0.992732022871
 O   -0.212580717379    1.501755279360   -1.333282022871
 O   -0.480900717379    2.990645279360    0.746177977129
 O   -1.734100717379    0.910465279360    0.620247977129
 C    0.659719282621    3.741875279360    0.294037977129
 H    0.417939282621    4.376465279360   -0.569612022871
 H    1.483579282621    3.064105279360    0.004457977129
 H    0.973999282621    4.369275279360    1.137087977129
 C   -3.041790717379    0.336985279360    0.483507977129
 H   -3.159850717379   -0.144474720640   -0.505742022871
 H   -3.821920717379    1.099655279360    0.591647977129
 H   -3.123650717379   -0.419134720640    1.274327977129
 K    0.904759282621    0.777445279360    1.017837977129
 K   -0.800320717379   -0.949414720640   -0.980902022871
 P    1.277527602132   -2.103619511371    0.451791612959
 O    0.448343461884   -2.937040672211   -0.757693175835
 O    1.701541530551   -0.856858715901   -0.631761128852
 O    2.500976540725   -2.808930288094    0.981212194155
 O    0.180027446938   -1.448152868855    1.321774172553
 C   -0.692272171786   -3.688264336041   -0.305553427495
 H   -0.450489482629   -4.322859071736    0.558105313878
 H   -1.516129999754   -3.010494490253   -0.015964407786
 H   -1.006556040479   -4.315665525958   -1.148606884382
 C    3.009238229445   -0.283379345779   -0.495022113761
 H    3.127300858630    0.198078758024    0.494220808817
 H    3.789372449886   -1.046058149841   -0.603165363347
 H    3.091098172635    0.472735254143   -1.285840432900
