28

 P   -1.329541788363    2.189270547686   -0.470184324983
 O   -2.552991788363    2.894570547686   -0.999614324983
 O   -0.232041788363    1.533800547686   -1.340164324983
 O   -0.500361788363    3.022690547686    0.739295675017
 O   -1.753561788363    0.942510547686    0.613365675017
 C    0.640258211637    3.773920547686    0.287155675017
 H    0.398478211637    4.408510547686   -0.576494324983
 H    1.464118211637    3.096150547686   -0.002424324983
 H    0.954538211637    4.401320547686    1.130205675017
 C   -3.061251788363    0.369030547686    0.476625675017
 H   -3.179311788363   -0.112429452314   -0.512624324983
 H   -3.841381788363    1.131700547686    0.584765675017
 H   -3.143111788363   -0.387089452314    1.267445675017
 K    0.885298211637    0.809490547686    1.010955675017
 K   -0.819781788363   -0.917369452314   -0.987784324983
 P    1.309121044462   -2.155642359325    0.462964462340
 O    0.479936904214   -2.989063520165   -0.746520326455
 O    1.733134972881   -0.908881563856   -0.620588279472
 O    2.532569983055   -2.860953136049    0.992385043536
 O    0.211620889268   -1.500175716810    1.332947021934
 C   -0.660678729456   -3.740287183995   -0.294380578115
 H   -0.418896040299   -4.374881919690    0.569278163259
 H   -1.484536557424   -3.062517338207   -0.004791558405
 H   -0.974962598150   -4.367688373913   -1.137434035002
 C    3.040831671774   -0.335402193734   -0.483849264381
 H    3.158894300960    0.146055910070    0.505393658198
 H    3.820965892216   -1.098080997796   -0.591992513966
 H    3.122691614964    0.420712406188   -1.274667583519
