28

 P   -1.387925001313    2.285406352664   -0.490831231320
 O   -2.611375001313    2.990706352664   -1.020261231320
 O   -0.290425001313    1.629936352664   -1.360811231320
 O   -0.558745001313    3.118826352664    0.718648768680
 O   -1.811945001313    1.038646352664    0.592718768680
 C    0.581874998687    3.870056352664    0.266508768680
 H    0.340094998687    4.504646352664   -0.597141231320
 H    1.405734998687    3.192286352664   -0.023071231320
 H    0.896154998687    4.497456352664    1.109558768680
 C   -3.119635001313    0.465166352664    0.455978768680
 H   -3.237695001313   -0.016293647336   -0.533271231320
 H   -3.899765001313    1.227836352664    0.564118768680
 H   -3.201495001313   -0.290953647336    1.246798768680
 K    0.826914998687    0.905626352664    0.990308768680
 K   -0.878165001313   -0.821233647336   -1.008431231320
 P    1.403901371451   -2.311710903189    0.496483010481
 O    0.574717231203   -3.145132064029   -0.713001778313
 O    1.827915299870   -1.064950107719   -0.587069731330
 O    2.627350310044   -3.017021679912    1.025903591678
 O    0.306401216257   -1.656244260673    1.366465570076
 C   -0.565898402467   -3.896355727859   -0.260862029973
 H   -0.324115713310   -4.530950463554    0.602796711401
 H   -1.389756230435   -3.218585882071    0.028726989737
 H   -0.880182271161   -4.523756917776   -1.103915486860
 C    3.135611998764   -0.491470737597   -0.450330716239
 H    3.253674627949   -0.010012633794    0.538912206340
 H    3.915746219205   -1.254149541659   -0.558473965825
 H    3.217471941953    0.264643862325   -1.241149035378
