28

 P   -1.485230356229    2.445632694293   -0.525242741882
 O   -2.708680356229    3.150932694293   -1.054672741882
 O   -0.387730356229    1.790162694293   -1.395222741882
 O   -0.656050356229    3.279052694293    0.684237258118
 O   -1.909250356229    1.198872694293    0.558307258118
 C    0.484569643771    4.030282694293    0.232097258118
 H    0.242789643771    4.664872694293   -0.631552741882
 H    1.308429643771    3.352512694293   -0.057482741882
 H    0.798849643771    4.657682694293    1.075147258118
 C   -3.216940356229    0.625392694293    0.421567258118
 H   -3.335000356229    0.143932694293   -0.567682741882
 H   -3.997070356229    1.388062694293    0.529707258118
 H   -3.298800356229   -0.130727305707    1.212387258118
 K    0.729609643771    1.065852694293    0.955897258118
 K   -0.975470356229   -0.661007305707   -1.042842741882
 P    1.561868583100   -2.571825142961    0.552347257384
 O    0.732684442852   -3.405246303801   -0.657137531410
 O    1.985882511519   -1.325064347492   -0.531205484427
 O    2.785317521692   -3.277135919685    1.081767838581
 O    0.464368427906   -1.916358500446    1.422329816979
 C   -0.407931190819   -4.156469967631   -0.204997783070
 H   -0.166148501661   -4.791064703326    0.658660958304
 H   -1.231789018787   -3.478700121843    0.084591236640
 H   -0.722215059512   -4.783871157549   -1.048051239957
 C    3.293579210412   -0.751584977370   -0.394466469336
 H    3.411641839598   -0.270126873566    0.594776453243
 H    4.073713430854   -1.514263781431   -0.502609718922
 H    3.375439153602    0.004529622552   -1.185284788475
