28

 P   -1.563074640162    2.573813767597   -0.552771950331
 O   -2.786524640162    3.279113767597   -1.082201950331
 O   -0.465574640162    1.918343767597   -1.422751950331
 O   -0.733894640162    3.407233767597    0.656708049669
 O   -1.987094640162    1.327053767597    0.530778049669
 C    0.406725359838    4.158463767597    0.204568049669
 H    0.164945359838    4.793053767597   -0.659081950331
 H    1.230585359838    3.480693767597   -0.085011950331
 H    0.721005359838    4.785863767597    1.047618049669
 C   -3.294784640162    0.753573767597    0.394038049669
 H   -3.412844640162    0.272113767597   -0.595211950331
 H   -4.074914640162    1.516243767597    0.502178049669
 H   -3.376644640162   -0.002546232403    1.184858049669
 K    0.651765359838    1.194033767597    0.928368049669
 K   -1.053314640162   -0.532826232403   -1.070371950331
 P    1.688242352419   -2.779916534779    0.597038654907
 O    0.859058212170   -3.613337695619   -0.612446133887
 O    2.112256280838   -1.533155739310   -0.486514086905
 O    2.911691291011   -3.485227311503    1.126459236103
 O    0.590742197224   -2.124449892264    1.467021214501
 C   -0.281557421500   -4.364561359449   -0.160306385548
 H   -0.039774732343   -4.999156095144    0.703352355826
 H   -1.105415249468   -3.686791513661    0.129282634162
 H   -0.595841290193   -4.991962549367   -1.003359842435
 C    3.419952979731   -0.959676369188   -0.349775071814
 H    3.538015608917   -0.478218265384    0.639467850765
 H    4.200087200173   -1.722355173249   -0.457918321399
 H    3.501812922921   -0.203561769266   -1.140593390952
