28

 P   -1.582535711145    2.605859035923   -0.559654252443
 O   -2.805985711145    3.311159035923   -1.089084252443
 O   -0.485035711145    1.950389035923   -1.429634252443
 O   -0.753355711145    3.439279035923    0.649825747557
 O   -2.006555711145    1.359099035923    0.523895747557
 C    0.387264288855    4.190509035923    0.197685747557
 H    0.145484288855    4.825099035923   -0.665964252443
 H    1.211124288855    3.512739035923   -0.091894252443
 H    0.701544288855    4.817909035923    1.040735747557
 C   -3.314245711145    0.785619035923    0.387155747557
 H   -3.432305711145    0.304159035923   -0.602094252443
 H   -4.094375711145    1.548289035923    0.495295747557
 H   -3.396105711145    0.029499035923    1.177975747557
 K    0.632304288855    1.226079035923    0.921485747557
 K   -1.072775711145   -0.500780964077   -1.077254252443
 P    1.719835794748   -2.831939382734    0.608211504287
 O    0.890651654500   -3.665360543574   -0.601273284507
 O    2.143849723167   -1.585178587264   -0.475341237524
 O    2.943284733341   -3.537250159457    1.137632085484
 O    0.622335639554   -2.176472740218    1.478194063882
 C   -0.249963979170   -4.416584207404   -0.149133536167
 H   -0.008181290013   -5.051178943099    0.714525205207
 H   -1.073821807138   -3.738814361616    0.140455483543
 H   -0.564247847864   -5.043985397321   -0.992186993054
 C    3.451546422061   -1.011699217142   -0.338602222433
 H    3.569609051246   -0.530241113339    0.650640700146
 H    4.231680642502   -1.774378021204   -0.446745472019
 H    3.533406365250   -0.255584617220   -1.129420541572
