28

 P   -1.601996782129    2.637904304249   -0.566536554556
 O   -2.825446782129    3.343204304249   -1.095966554556
 O   -0.504496782129    1.982434304249   -1.436516554556
 O   -0.772816782129    3.471324304249    0.642943445444
 O   -2.026016782129    1.391144304249    0.517013445444
 C    0.367803217871    4.222554304249    0.190803445444
 H    0.126023217871    4.857144304249   -0.672846554556
 H    1.191663217871    3.544784304249   -0.098776554556
 H    0.682083217871    4.849954304249    1.033853445444
 C   -3.333706782129    0.817664304249    0.380273445444
 H   -3.451766782129    0.336204304249   -0.608976554556
 H   -4.113836782129    1.580334304249    0.488413445444
 H   -3.415566782129    0.061544304249    1.171093445444
 K    0.612843217871    1.258124304249    0.914603445444
 K   -1.092236782129   -0.468735695751   -1.084136554556
 P    1.751429237078   -2.883962230688    0.619384353668
 O    0.922245096830   -3.717383391528   -0.590100435126
 O    2.175443165497   -1.637201435219   -0.464168388143
 O    2.974878175671   -3.589273007411    1.148804934864
 O    0.653929081884   -2.228495588173    1.489366913262
 C   -0.218370536841   -4.468607055358   -0.137960686787
 H    0.023412152317   -5.103201791053    0.725698054587
 H   -1.042228364809   -3.790837209570    0.151628332923
 H   -0.532654405534   -5.096008245276   -0.981014143673
 C    3.483139864390   -1.063722065097   -0.327429373052
 H    3.601202493576   -0.582263961293    0.661813549526
 H    4.263274084832   -1.826400869158   -0.435572622638
 H    3.564999807580   -0.307607465175   -1.118247692191
