28

 P   -1.621457853112    2.669949572575   -0.573418856668
 O   -2.844907853112    3.375249572575   -1.102848856668
 O   -0.523957853112    2.014479572575   -1.443398856668
 O   -0.792277853112    3.503369572575    0.636061143332
 O   -2.045477853112    1.423189572575    0.510131143332
 C    0.348342146888    4.254599572575    0.183921143332
 H    0.106562146888    4.889189572575   -0.679728856668
 H    1.172202146888    3.576829572575   -0.105658856668
 H    0.662622146888    4.881999572575    1.026971143332
 C   -3.353167853112    0.849709572575    0.373391143332
 H   -3.471227853112    0.368249572575   -0.615858856668
 H   -4.133297853112    1.612379572575    0.481531143332
 H   -3.435027853112    0.093589572575    1.164211143332
 K    0.593382146888    1.290169572575    0.907721143332
 K   -1.111697853112   -0.436690427425   -1.091018856668
 P    1.783022679408   -2.935985078643    0.630557203049
 O    0.953838539160   -3.769406239483   -0.578927585746
 O    2.207036607827   -1.689224283173   -0.452995538763
 O    3.006471618000   -3.641295855366    1.159977784245
 O    0.685522524214   -2.280518436127    1.500539762643
 C   -0.186777094511   -4.520629903312   -0.126787837406
 H    0.055005594647   -5.155224639008    0.736870903968
 H   -1.010634922479   -3.842860057525    0.162801182304
 H   -0.501060963204   -5.148031093230   -0.969841294293
 C    3.514733306720   -1.115744913051   -0.316256523672
 H    3.632795935906   -0.634286809248    0.672986398907
 H    4.294867527162   -1.878423717113   -0.424399773258
 H    3.596593249910   -0.359630313129   -1.107074842811
