28

 P   -1.660379995079    2.734040109227   -0.587183460893
 O   -2.883829995079    3.439340109227   -1.116613460893
 O   -0.562879995079    2.078570109227   -1.457163460893
 O   -0.831199995079    3.567460109227    0.622296539107
 O   -2.084399995079    1.487280109227    0.496366539107
 C    0.309420004921    4.318690109227    0.170156539107
 H    0.067640004921    4.953280109227   -0.693493460893
 H    1.133280004921    3.640920109227   -0.119423460893
 H    0.623700004921    4.946090109227    1.013206539107
 C   -3.392089995079    0.913800109227    0.359626539107
 H   -3.510149995079    0.432340109227   -0.629623460893
 H   -4.172219995079    1.676470109227    0.467766539107
 H   -3.473949995079    0.157680109227    1.150446539107
 K    0.554460004921    1.354260109227    0.893956539107
 K   -1.150619995079   -0.372599890773   -1.104783460893
 P    1.846209564067   -3.040030774551    0.652902901810
 O    1.017025423819   -3.873451935392   -0.556581886985
 O    2.270223492486   -1.793269979082   -0.430649840002
 O    3.069658502660   -3.745341551275    1.182323483006
 O    0.748709408873   -2.384564132036    1.522885461404
 C   -0.123590209851   -4.624675599221   -0.104442138645
 H    0.118192479306   -5.259270334917    0.759216602729
 H   -0.947448037819   -3.946905753434    0.185146881065
 H   -0.437874078545   -5.252076789139   -0.947495595532
 C    3.577920191379   -1.219790608960   -0.293910824911
 H    3.695982820565   -0.738332505157    0.695332097668
 H    4.358054411821   -1.982469413022   -0.402054074496
 H    3.659780134569   -0.463676009038   -1.084729144049
