28

 P   -1.699302137045    2.798130645879   -0.600948065117
 O   -2.922752137045    3.503430645879   -1.130378065117
 O   -0.601802137045    2.142660645879   -1.470928065117
 O   -0.870122137045    3.631550645879    0.608531934883
 O   -2.123322137045    1.551370645879    0.482601934883
 C    0.270497862955    4.382780645879    0.156391934883
 H    0.028717862955    5.017370645879   -0.707258065117
 H    1.094357862955    3.705010645879   -0.133188065117
 H    0.584777862955    5.010180645879    0.999441934883
 C   -3.431012137045    0.977890645879    0.345861934883
 H   -3.549072137045    0.496430645879   -0.643388065117
 H   -4.211142137045    1.740560645879    0.454001934883
 H   -3.512872137045    0.221770645879    1.136681934883
 K    0.515537862955    1.418350645879    0.880191934883
 K   -1.189542137045   -0.308509354121   -1.118548065117
 P    1.909396448727   -3.144076470460    0.675248600571
 O    1.080212308478   -3.977497631301   -0.534236188223
 O    2.333410377145   -1.897315674991   -0.408304141241
 O    3.132845387319   -3.849387247184    1.204669181767
 O    0.811896293532   -2.488609827945    1.545231160165
 C   -0.060403325192   -4.728721295130   -0.082096439884
 H    0.181379363965   -5.363316030826    0.781562301490
 H   -0.884261153160   -4.050951449343    0.207492579826
 H   -0.374687193885   -5.356122485048   -0.925149896770
 C    3.641107076039   -1.323836304869   -0.271565126149
 H    3.759169705224   -0.842378201066    0.717677796429
 H    4.421241296480   -2.086515108931   -0.379708375735
 H    3.722967019229   -0.567721704947   -1.062383445288
