28

 P   -1.718763208028    2.830175914205   -0.607830367230
 O   -2.942213208028    3.535475914205   -1.137260367230
 O   -0.621263208028    2.174705914205   -1.477810367230
 O   -0.889583208028    3.663595914205    0.601649632770
 O   -2.142783208028    1.583415914205    0.475719632770
 C    0.251036791972    4.414825914205    0.149509632770
 H    0.009256791972    5.049415914205   -0.714140367230
 H    1.074896791972    3.737055914205   -0.140070367230
 H    0.565316791972    5.042225914205    0.992559632770
 C   -3.450473208028    1.009935914205    0.338979632770
 H   -3.568533208028    0.528475914205   -0.650270367230
 H   -4.230603208028    1.772605914205    0.447119632770
 H   -3.532333208028    0.253815914205    1.129799632770
 K    0.496076791972    1.450395914205    0.873309632770
 K   -1.209003208028   -0.276464085795   -1.125430367230
 P    1.940989891056   -3.196099318415    0.686421449952
 O    1.111805750808   -4.029520479255   -0.523063338843
 O    2.365003819475   -1.949338522946   -0.397131291860
 O    3.164438829649   -3.901410095138    1.215842031148
 O    0.843489735862   -2.540632675900    1.556404009546
 C   -0.028809882862   -4.780744143085   -0.070923590503
 H    0.212972806295   -5.415338878780    0.792735150871
 H   -0.852667710830   -4.102974297297    0.218665429207
 H   -0.343093751556   -5.408145333003   -0.913977047390
 C    3.672700518369   -1.375859152824   -0.260392276769
 H    3.790763147554   -0.894401049020    0.728850645810
 H    4.452834738810   -2.138537956885   -0.368535526355
 H    3.754560461558   -0.619744552902   -1.051210595908
