28

 P   -1.738224279012    2.862221182531   -0.614712669342
 O   -2.961674279012    3.567521182531   -1.144142669342
 O   -0.640724279012    2.206751182531   -1.484692669342
 O   -0.909044279012    3.695641182531    0.594767330658
 O   -2.162244279012    1.615461182531    0.468837330658
 C    0.231575720988    4.446871182531    0.142627330658
 H   -0.010204279012    5.081461182531   -0.721022669342
 H    1.055435720988    3.769101182531   -0.146952669342
 H    0.545855720988    5.074271182531    0.985677330658
 C   -3.469934279012    1.041981182531    0.332097330658
 H   -3.587994279012    0.560521182531   -0.657152669342
 H   -4.250064279012    1.804651182531    0.440237330658
 H   -3.551794279012    0.285861182531    1.122917330658
 K    0.476615720988    1.482441182531    0.866427330658
 K   -1.228464279012   -0.244418817469   -1.132312669342
 P    1.972583333386   -3.248122166369    0.697594299332
 O    1.143399193138   -4.081543327210   -0.511890489462
 O    2.396597261805   -2.001361370900   -0.385958442479
 O    3.196032271979   -3.953432943093    1.227014880528
 O    0.875083178192   -2.592655523854    1.567576858926
 C    0.002783559467   -4.832766991039   -0.059750741122
 H    0.244566248625   -5.467361726735    0.803908000252
 H   -0.821074268501   -4.154997145252    0.229838278587
 H   -0.311500309226   -5.460168180957   -0.902804198009
 C    3.704293960698   -1.427882000778   -0.249219427388
 H    3.822356589884   -0.946423896975    0.740023495190
 H    4.484428181140   -2.190560804840   -0.357362676974
 H    3.786153903888   -0.671767400856   -1.040037746527
