28

 P   -1.854990704912    3.054492792486   -0.656006482016
 O   -3.078440704912    3.759792792486   -1.185436482016
 O   -0.757490704912    2.399022792486   -1.525986482016
 O   -1.025810704912    3.887912792486    0.553473517984
 O   -2.279010704912    1.807732792486    0.427543517984
 C    0.114809295088    4.639142792486    0.101333517984
 H   -0.126970704912    5.273732792486   -0.762316482016
 H    0.938669295088    3.961372792486   -0.188246482016
 H    0.429089295088    5.266542792486    0.944383517984
 C   -3.586700704912    1.234252792486    0.290803517984
 H   -3.704760704912    0.752792792486   -0.698446482016
 H   -4.366830704912    1.996922792486    0.398943517984
 H   -3.668560704912    0.478132792486    1.081623517984
 K    0.359849295088    1.674712792486    0.825133517984
 K   -1.345230704912   -0.052147207514   -1.173606482016
 P    2.162143987364   -3.560259254096    0.764631395616
 O    1.332959847116   -4.393680414937   -0.444853393179
 O    2.586157915783   -2.313498458627   -0.318921346196
 O    3.385592925957   -4.265570030820    1.294051976812
 O    1.064643832170   -2.904792611581    1.634613955210
 C    0.192344213446   -5.144904078766    0.007286355161
 H    0.434126902603   -5.779498814462    0.870945096535
 H   -0.631513614522   -4.467134232978    0.296875374871
 H   -0.121939655248   -5.772305268684   -0.835767101726
 C    3.893854614676   -1.740019088505   -0.182182331105
 H    4.011917243862   -1.258560984702    0.807060591474
 H    4.673988835118   -2.502697892567   -0.290325580690
 H    3.975714557866   -0.983904488583   -0.973000650244
