28

 P   -1.874451775895    3.086538060812   -0.662888784128
 O   -3.097901775895    3.791838060812   -1.192318784128
 O   -0.776951775895    2.431068060812   -1.532868784128
 O   -1.045271775895    3.919958060812    0.546591215872
 O   -2.298471775895    1.839778060812    0.420661215872
 C    0.095348224105    4.671188060812    0.094451215872
 H   -0.146431775895    5.305778060812   -0.769198784128
 H    0.919208224105    3.993418060812   -0.195128784128
 H    0.409628224105    5.298588060812    0.937501215872
 C   -3.606161775895    1.266298060812    0.283921215872
 H   -3.724221775895    0.784838060812   -0.705328784128
 H   -4.386291775895    2.028968060812    0.392061215872
 H   -3.688021775895    0.510178060812    1.074741215872
 K    0.340388224105    1.706758060812    0.818251215872
 K   -1.364691775895   -0.020101939188   -1.180488784128
 P    2.193737429694   -3.612282102051    0.775804244996
 O    1.364553289446   -4.445703262891   -0.433680543798
 O    2.617751358113   -2.365521306581   -0.307748496815
 O    3.417186368286   -4.317592878774    1.305224826193
 O    1.096237274500   -2.956815459535    1.645786804591
 C    0.223937655775   -5.196926926721    0.018459204542
 H    0.465720344933   -5.831521662416    0.882117945916
 H   -0.599920172193   -4.519157080933    0.308048224251
 H   -0.090346212918   -5.824328116639   -0.824594252345
 C    3.925448057006   -1.792041936460   -0.171009481724
 H    4.043510686192   -1.310583832656    0.818233440854
 H    4.705582277448   -2.554720740521   -0.279152731310
 H    4.007308000196   -1.035927336538   -0.961827800863
