28

 P   -1.893912846878    3.118583329138   -0.669771086241
 O   -3.117362846878    3.823883329138   -1.199201086241
 O   -0.796412846878    2.463113329138   -1.539751086241
 O   -1.064732846878    3.952003329138    0.539708913759
 O   -2.317932846878    1.871823329138    0.413778913759
 C    0.075887153122    4.703233329138    0.087568913759
 H   -0.165892846878    5.337823329138   -0.776081086241
 H    0.899747153122    4.025463329138   -0.202011086241
 H    0.390167153122    5.330633329138    0.930618913759
 C   -3.625622846878    1.298343329138    0.277038913759
 H   -3.743682846878    0.816883329138   -0.712211086241
 H   -4.405752846878    2.061013329138    0.385178913759
 H   -3.707482846878    0.542223329138    1.067858913759
 K    0.320927153122    1.738803329138    0.811368913759
 K   -1.384152846878    0.011943329138   -1.187371086241
 P    2.225330872024   -3.664304950005    0.786977094377
 O    1.396146731775   -4.497726110846   -0.422507694417
 O    2.649344800442   -2.417544154536   -0.296575647435
 O    3.448779810616   -4.369615726729    1.316397675573
 O    1.127830716829   -3.008838307490    1.656959653971
 C    0.255531098105   -5.248949774675    0.029632053922
 H    0.497313787262   -5.883544510371    0.893290795296
 H   -0.568326729863   -4.571179928887    0.319221073632
 H   -0.058752770588   -5.876350964593   -0.813421402965
 C    3.957041499336   -1.844064784414   -0.159836632343
 H    4.075104128521   -1.362606680611    0.829406290235
 H    4.737175719777   -2.606743588476   -0.267979881929
 H    4.038901442526   -1.087950184492   -0.950654951482
