28

 P   -2.069062485728    3.406990744072   -0.731711805252
 O   -3.292512485728    4.112290744072   -1.261141805252
 O   -0.971562485728    2.751520744072   -1.601691805252
 O   -1.239882485728    4.240410744072    0.477768194748
 O   -2.493082485728    2.160230744072    0.351838194748
 C   -0.099262485728    4.991640744072    0.025628194748
 H   -0.341042485728    5.626230744072   -0.838021805252
 H    0.724597514272    4.313870744072   -0.263951805252
 H    0.215017514272    5.619040744072    0.868678194748
 C   -3.800772485728    1.586750744072    0.215098194748
 H   -3.918832485728    1.105290744072   -0.774151805252
 H   -4.580902485728    2.349420744072    0.323238194748
 H   -3.882632485728    0.830630744072    1.005918194748
 K    0.145777514272    2.027210744072    0.749428194748
 K   -1.559302485728    0.300350744072   -1.249311805252
 P    2.509671852991   -4.132510581596    0.887532738802
 O    1.680487712743   -4.965931742436   -0.321952049992
 O    2.933685781410   -2.885749786126   -0.196020003009
 O    3.733120791583   -4.837821358319    1.416953319998
 O    1.412171697797   -3.477043939080    1.757515298397
 C    0.539872079072   -5.717155406266    0.130187698348
 H    0.781654768230   -6.351750141961    0.993846439722
 H   -0.283985748896   -5.039385560478    0.419776718057
 H    0.225588210379   -6.344556596184   -0.712865758539
 C    4.241382480303   -2.312270416005   -0.059280987918
 H    4.359445109489   -1.830812312201    0.929961934660
 H    5.021516700745   -3.074949220066   -0.167424237504
 H    4.323242423493   -1.556155816082   -0.850099307057
