28

 P   -2.088523556711    3.439036012398   -0.738594107364
 O   -3.311973556711    4.144336012398   -1.268024107364
 O   -0.991023556711    2.783566012398   -1.608574107364
 O   -1.259343556711    4.272456012398    0.470885892636
 O   -2.512543556711    2.192276012398    0.344955892636
 C   -0.118723556711    5.023686012398    0.018745892636
 H   -0.360503556711    5.658276012398   -0.844904107364
 H    0.705136443289    4.345916012398   -0.270834107364
 H    0.195556443289    5.651086012398    0.861795892636
 C   -3.820233556711    1.618796012398    0.208215892636
 H   -3.938293556711    1.137336012398   -0.781034107364
 H   -4.600363556711    2.381466012398    0.316355892636
 H   -3.902093556711    0.862676012398    0.999035892636
 K    0.126316443289    2.059256012398    0.742545892636
 K   -1.578763556711    0.332396012398   -1.256194107364
 P    2.541265295321   -4.184533429550    0.898705588183
 O    1.712081155072   -5.017954590391   -0.310779200612
 O    2.965279223739   -2.937772634081   -0.184847153629
 O    3.764714233913   -4.889844206274    1.428126169379
 O    1.443765140126   -3.529066787035    1.768688147777
 C    0.571465521402   -5.769178254220    0.141360547728
 H    0.813248210559   -6.403772989916    1.005019289102
 H   -0.252392306566   -5.091408408432    0.430949567438
 H    0.257181652709   -6.396579444138   -0.701692909159
 C    4.272975922633   -2.364293263959   -0.048108138538
 H    4.391038551818   -1.882835160156    0.941134784041
 H    5.053110143074   -3.126972068021   -0.156251388123
 H    4.354835865823   -1.608178664037   -0.838926457676
