28

 P   -2.185828911628    3.599262354027   -0.773005617926
 O   -3.409278911628    4.304562354027   -1.302435617926
 O   -1.088328911628    2.943792354027   -1.642985617926
 O   -1.356648911628    4.432682354027    0.436474382074
 O   -2.609848911628    2.352502354027    0.310544382074
 C   -0.216028911628    5.183912354027   -0.015665617926
 H   -0.457808911628    5.818502354027   -0.879315617926
 H    0.607831088372    4.506142354027   -0.305245617926
 H    0.098251088372    5.811312354027    0.827384382074
 C   -3.917538911628    1.779022354027    0.173804382074
 H   -4.035598911628    1.297562354027   -0.815445617926
 H   -4.697668911628    2.541692354027    0.281944382074
 H   -3.999398911628    1.022902354027    0.964624382074
 K    0.029011088372    2.219482354027    0.708134382074
 K   -1.676068911628    0.492622354027   -1.290605617926
 P    2.699232506969   -4.444647669323    0.954569835086
 O    1.870048366721   -5.278068830163   -0.254914953709
 O    3.123246435388   -3.197886873853   -0.128982906726
 O    3.922681445562   -5.149958446046    1.483990416282
 O    1.601732351775   -3.789181026807    1.824552394680
 C    0.729432733050   -6.029292493993    0.197224794631
 H    0.971215422208   -6.663887229688    1.060883536005
 H   -0.094425094918   -5.351522648205    0.486813814341
 H    0.415148864357   -6.656693683911   -0.645828662256
 C    4.430943134281   -2.624407503732    0.007756108365
 H    4.549005763467   -2.142949399928    0.996999030944
 H    5.211077354723   -3.387086307793   -0.100387141220
 H    4.512803077471   -1.868292903809   -0.783062210773
