28

 P   -2.263673195561    3.727443427331   -0.800534826375
 O   -3.487123195561    4.432743427331   -1.329964826375
 O   -1.166173195561    3.071973427331   -1.670514826375
 O   -1.434493195561    4.560863427331    0.408945173625
 O   -2.687693195561    2.480683427331    0.283015173625
 C   -0.293873195561    5.312093427331   -0.043194826375
 H   -0.535653195561    5.946683427331   -0.906844826375
 H    0.529986804439    4.634323427331   -0.332774826375
 H    0.020406804439    5.939493427331    0.799855173625
 C   -3.995383195561    1.907203427331    0.146275173625
 H   -4.113443195561    1.425743427331   -0.842974826375
 H   -4.775513195561    2.669873427331    0.254415173625
 H   -4.077243195561    1.151083427331    0.937095173625
 K   -0.048833195561    2.347663427331    0.680605173625
 K   -1.753913195561    0.620803427331   -1.318134826375
 P    2.825606276288   -4.652739061141    0.999261232608
 O    1.996422136040   -5.486160221981   -0.210223556186
 O    3.249620204707   -3.405978265671   -0.084291509203
 O    4.049055214881   -5.358049837864    1.528681813804
 O    1.728106121094   -3.997272418625    1.869243792202
 C    0.855806502369   -6.237383885811    0.241916192154
 H    1.097589191527   -6.871978621506    1.105574933527
 H    0.031948674401   -5.559614040023    0.531505211863
 H    0.541522633676   -6.864785075729   -0.601137264733
 C    4.557316903600   -2.832498895550    0.052447505888
 H    4.675379532786   -2.351040791746    1.041690428466
 H    5.337451124042   -3.595177699611   -0.055695743698
 H    4.639176846790   -2.076384295627   -0.738370813251
