28

 P   -2.322056408511    3.823579232309   -0.821181732712
 O   -3.545506408511    4.528879232309   -1.350611732712
 O   -1.224556408511    3.168109232309   -1.691161732712
 O   -1.492876408511    4.656999232309    0.388298267288
 O   -2.746076408511    2.576819232309    0.262368267288
 C   -0.352256408511    5.408229232309   -0.063841732712
 H   -0.594036408511    6.042819232309   -0.927491732712
 H    0.471603591489    4.730459232309   -0.353421732712
 H   -0.037976408511    6.035629232309    0.779208267288
 C   -4.053766408511    2.003339232309    0.125628267288
 H   -4.171826408511    1.521879232309   -0.863621732712
 H   -4.833896408511    2.766009232309    0.233768267288
 H   -4.135626408511    1.247219232309    0.916448267288
 K   -0.107216408511    2.443799232309    0.659958267288
 K   -1.812296408511    0.716939232309   -1.338781732712
 P    2.920386603277   -4.808807605004    1.032779780750
 O    2.091202463029   -5.642228765844   -0.176705008044
 O    3.344400531696   -3.562046809535   -0.050772961062
 O    4.143835541870   -5.514118381728    1.562200361946
 O    1.822886448083   -4.153340962489    1.902762340344
 C    0.950586829358   -6.393452429674    0.275434740295
 H    1.192369518516   -7.028047165370    1.139093481669
 H    0.126729001390   -5.715682583886    0.565023760005
 H    0.636302960665   -7.020853619592   -0.567618716592
 C    4.652097230589   -2.988567439413    0.085966054030
 H    4.770159859775   -2.507109335609    1.075208976608
 H    5.432231451031   -3.751246243475   -0.022177195556
 H    4.733957173779   -2.232452839491   -0.704852265109
