28

 P   -2.341517479494    3.855624500635   -0.828064034824
 O   -3.564967479494    4.560924500635   -1.357494034824
 O   -1.244017479494    3.200154500635   -1.698044034824
 O   -1.512337479494    4.689044500635    0.381415965176
 O   -2.765537479494    2.608864500635    0.255485965176
 C   -0.371717479494    5.440274500635   -0.070724034824
 H   -0.613497479494    6.074864500635   -0.934374034824
 H    0.452142520506    4.762504500635   -0.360304034824
 H   -0.057437479494    6.067674500635    0.772325965176
 C   -4.073227479494    2.035384500635    0.118745965176
 H   -4.191287479494    1.553924500635   -0.870504034824
 H   -4.853357479494    2.798054500635    0.226885965176
 H   -4.155087479494    1.279264500635    0.909565965176
 K   -0.126677479494    2.475844500635    0.653075965176
 K   -1.831757479494    0.748984500635   -1.345664034824
 P    2.951980045607   -4.860830452959    1.043952630130
 O    2.122795905358   -5.694251613799   -0.165532158664
 O    3.375993974026   -3.614069657489   -0.039600111681
 O    4.175428984199   -5.566141229682    1.573373211327
 O    1.854479890412   -4.205363810443    1.913935189725
 C    0.982180271688   -6.445475277629    0.286607589676
 H    1.223962960845   -7.080070013324    1.150266331050
 H    0.158322443720   -5.767705431841    0.576196609386
 H    0.667896402995   -7.072876467547   -0.556445867211
 C    4.683690672919   -3.040590287368    0.097138903410
 H    4.801753302105   -2.559132183564    1.086381825989
 H    5.463824893361   -3.803269091429   -0.011004346176
 H    4.765550616109   -2.284475687445   -0.693679415729
