28

 P   -2.419361763427    3.983805573939   -0.855593243273
 O   -3.642811763427    4.689105573939   -1.385023243273
 O   -1.321861763427    3.328335573939   -1.725573243273
 O   -1.590181763427    4.817225573939    0.353886756727
 O   -2.843381763427    2.737045573939    0.227956756727
 C   -0.449561763427    5.568455573939   -0.098253243273
 H   -0.691341763427    6.203045573939   -0.961903243273
 H    0.374298236573    4.890685573939   -0.387833243273
 H   -0.135281763427    6.195855573939    0.744796756727
 C   -4.151071763427    2.163565573939    0.091216756727
 H   -4.269131763427    1.682105573939   -0.898033243273
 H   -4.931201763427    2.926235573939    0.199356756727
 H   -4.232931763427    1.407445573939    0.882036756727
 K   -0.204521763427    2.604025573939    0.625546756727
 K   -1.909601763427    0.877165573939   -1.373193243273
 P    3.078353814925   -5.068921844777    1.088644027653
 O    2.249169674677   -5.902343005617   -0.120840761141
 O    3.502367743344   -3.822161049307    0.005091285841
 O    4.301802753518   -5.774232621500    1.618064608849
 O    1.980853659731   -4.413455202261    1.958626587247
 C    1.108554041007   -6.653566669447    0.331298987198
 H    1.350336730164   -7.288161405142    1.194957728572
 H    0.284696213039   -5.975796823659    0.620888006908
 H    0.794270172314   -7.280967859365   -0.511754469689
 C    4.810064442238   -3.248681679186    0.141830300932
 H    4.928127071423   -2.767223575382    1.131073223511
 H    5.590198662679   -4.011360483247    0.033687051347
 H    4.891924385428   -2.492567079263   -0.648988018206
