28

 P   -2.477744976377    4.079941378916   -0.876240149610
 O   -3.701194976377    4.785241378916   -1.405670149610
 O   -1.380244976377    3.424471378916   -1.746220149610
 O   -1.648564976377    4.913361378916    0.333239850390
 O   -2.901764976377    2.833181378916    0.207309850390
 C   -0.507944976377    5.664591378916   -0.118900149610
 H   -0.749724976377    6.299181378916   -0.982550149610
 H    0.315915023623    4.986821378916   -0.408480149610
 H   -0.193664976377    6.291991378916    0.724149850390
 C   -4.209454976377    2.259701378916    0.070569850390
 H   -4.327514976377    1.778241378916   -0.918680149610
 H   -4.989584976377    3.022371378916    0.178709850390
 H   -4.291314976377    1.503581378916    0.861389850390
 K   -0.262904976377    2.700161378916    0.604899850390
 K   -1.967984976377    0.973301378916   -1.393840149610
 P    3.173134141915   -5.224990388640    1.122162575795
 O    2.343950001666   -6.058411549480   -0.087322213000
 O    3.597148070333   -3.978229593171    0.038609833983
 O    4.396583080507   -5.930301165364    1.651583156991
 O    2.075633986720   -4.569523746125    1.992145135389
 C    1.203334367996   -6.809635213310    0.364817535340
 H    1.445117057153   -7.444229949006    1.228476276714
 H    0.379476540028   -6.131865367522    0.654406555050
 H    0.889050499303   -7.437036403228   -0.478235921547
 C    4.904844769227   -3.404750223049    0.175348849074
 H    5.022907398412   -2.923292119245    1.164591771653
 H    5.684978989668   -4.167429027111    0.067205599488
 H    4.986704712417   -2.648635623127   -0.615469470065
