28

 P   -2.497206047360    4.111986647242   -0.883122451723
 O   -3.720656047360    4.817286647242   -1.412552451723
 O   -1.399706047360    3.456516647242   -1.753102451723
 O   -1.668026047360    4.945406647242    0.326357548277
 O   -2.921226047360    2.865226647242    0.200427548277
 C   -0.527406047360    5.696636647242   -0.125782451723
 H   -0.769186047360    6.331226647242   -0.989432451723
 H    0.296453952640    5.018866647242   -0.415362451723
 H   -0.213126047360    6.324036647242    0.717267548277
 C   -4.228916047360    2.291746647242    0.063687548277
 H   -4.346976047360    1.810286647242   -0.925562451723
 H   -5.009046047360    3.054416647242    0.171827548277
 H   -4.310776047360    1.535626647242    0.854507548277
 K   -0.282366047360    2.732206647242    0.598017548277
 K   -1.987446047360    1.005346647242   -1.400722451723
 P    3.204727584244   -5.277013236595    1.133335425175
 O    2.375543443996   -6.110434397435   -0.076149363619
 O    3.628741512663   -4.030252441125    0.049782683364
 O    4.428176522837   -5.982324013318    1.662756006371
 O    2.107227429050   -4.621546594079    2.003317984770
 C    1.234927810326   -6.861658061265    0.375990384721
 H    1.476710499483   -7.496252796960    1.239649126095
 H    0.411069982358   -6.183888215477    0.665579404430
 H    0.920643941632   -7.489059251183   -0.467063072166
 C    4.936438211557   -3.456773071004    0.186521698455
 H    5.054500840742   -2.975314967200    1.175764621033
 H    5.716572431998   -4.219451875065    0.078378448869
 H    5.018298154746   -2.700658471081   -0.604296620684
