28

 P   -2.555589260310    4.208122452220   -0.903769358060
 O   -3.779039260310    4.913422452220   -1.433199358060
 O   -1.458089260310    3.552652452220   -1.773749358060
 O   -1.726409260310    5.041542452220    0.305710641940
 O   -2.979609260310    2.961362452220    0.179780641940
 C   -0.585789260310    5.792772452220   -0.146429358060
 H   -0.827569260310    6.427362452220   -1.010079358060
 H    0.238070739690    5.115002452220   -0.436009358060
 H   -0.271509260310    6.420172452220    0.696620641940
 C   -4.287299260310    2.387882452220    0.043040641940
 H   -4.405359260310    1.906422452220   -0.946209358060
 H   -5.067429260310    3.150552452220    0.151180641940
 H   -4.369159260310    1.631762452220    0.833860641940
 K   -0.340749260310    2.828342452220    0.577370641940
 K   -2.045829260310    1.101482452220   -1.421369358060
 P    3.299507911233   -5.433081780458    1.166853973317
 O    2.470323770985   -6.266502941298   -0.042630815477
 O    3.723521839652   -4.186320984989    0.083301231506
 O    4.522956849826   -6.138392557182    1.696274554513
 O    2.202007756039   -4.777615137943    2.036836532911
 C    1.329708137315   -7.017726605128    0.409508932862
 H    1.571490826472   -7.652321340824    1.273167674236
 H    0.505850309347   -6.339956759340    0.699097952572
 H    1.015424268622   -7.645127795046   -0.433544524024
 C    5.031218538546   -3.612841614867    0.220040246597
 H    5.149281167731   -3.131383511063    1.209283169175
 H    5.811352758987   -4.375520418929    0.111896997011
 H    5.113078481735   -2.856727014945   -0.570778072542
