28

 P   -2.672355686210    4.400394062176   -0.945063170734
 O   -3.895805686210    5.105694062176   -1.474493170734
 O   -1.574855686210    3.744924062176   -1.815043170734
 O   -1.843175686210    5.233814062176    0.264416829266
 O   -3.096375686210    3.153634062176    0.138486829266
 C   -0.702555686210    5.985044062176   -0.187723170734
 H   -0.944335686210    6.619634062176   -1.051373170734
 H    0.121304313790    5.307274062176   -0.477303170734
 H   -0.388275686210    6.612444062176    0.655326829266
 C   -4.404065686210    2.580154062176    0.001746829266
 H   -4.522125686210    2.098694062176   -0.987503170734
 H   -5.184195686210    3.342824062176    0.109886829266
 H   -4.485925686210    1.824034062176    0.792566829266
 K   -0.457515686210    3.020614062176    0.536076829266
 K   -2.162595686210    1.293754062176   -1.462663170734
 P    3.489068565212   -5.745218868185    1.233891069601
 O    2.659884424963   -6.578640029025    0.024406280806
 O    3.913082493630   -4.498458072716    0.150338327789
 O    4.712517503804   -6.450529644909    1.763311650797
 O    2.391568410017   -5.089752225670    2.103873629195
 C    1.519268791293   -7.329863692855    0.476546029146
 H    1.761051480450   -7.964458428551    1.340204770520
 H    0.695410963325   -6.652093847067    0.766135048856
 H    1.204984922600   -7.957264882773   -0.366507427741
 C    5.220779192524   -3.924978702594    0.287077342880
 H    5.338841821709   -3.443520598790    1.276320265459
 H    6.000913412965   -4.687657506656    0.178934093294
 H    5.302639135714   -3.168864102672   -0.503740976259
