28

 P   -2.730738899160    4.496529867154   -0.965710077071
 O   -3.954188899160    5.201829867154   -1.495140077071
 O   -1.633238899160    3.841059867154   -1.835690077071
 O   -1.901558899160    5.329949867154    0.243769922929
 O   -3.154758899160    3.249769867154    0.117839922929
 C   -0.760938899160    6.081179867154   -0.208370077071
 H   -1.002718899160    6.715769867154   -1.072020077071
 H    0.062921100840    5.403409867154   -0.497950077071
 H   -0.446658899160    6.708579867154    0.634679922929
 C   -4.462448899160    2.676289867154   -0.018900077071
 H   -4.580508899160    2.194829867154   -1.008150077071
 H   -5.242578899160    3.438959867154    0.089239922929
 H   -4.544308899160    1.920169867154    0.771919922929
 K   -0.515898899160    3.116749867154    0.515429922929
 K   -2.220978899160    1.389889867154   -1.483310077071
 P    3.583848892201   -5.901287412049    1.267409617742
 O    2.754664751952   -6.734708572889    0.057924828948
 O    4.007862820620   -4.654526616579    0.183856875931
 O    4.807297830793   -6.606598188772    1.796830198939
 O    2.486348737006   -5.245820769533    2.137392177337
 C    1.614049118282   -7.485932236719    0.510064577288
 H    1.855831807440   -8.120526972414    1.373723318662
 H    0.790191290314   -6.808162390931    0.799653596997
 H    1.299765249589   -8.113333426636   -0.332988879599
 C    5.315559519513   -4.081047246457    0.320595891022
 H    5.433622148699   -3.599589142654    1.309838813600
 H    6.095693739955   -4.843726050519    0.212452641436
 H    5.397419462703   -3.324932646535   -0.470222428117
