8

 N   -0.430751776020   -0.314022705212   -0.251248600566
 H   -0.835400776020    0.504586294788    0.198047399434
 H   -0.835400776020   -1.132631705212    0.198047399434
 C    1.029686223980   -0.314022705212   -0.113211600566
 H    1.428789223980   -1.195963705212   -0.619600600566
 H    1.398367223980   -0.314022705212    0.922618399434
 H    1.428789223980    0.567918294788   -0.619600600566
LI   -1.272769993238    1.389388623565    0.683673806071
