8

 N   -0.416092009848   -0.343679559737   -0.267525853944
 H   -0.820741009848    0.474929440263    0.181770146056
 H   -0.820741009848   -1.162288559737    0.181770146056
 C    1.044345990152   -0.343679559737   -0.129488853944
 H    1.443448990152   -1.225620559737   -0.635877853944
 H    1.413026990152   -0.343679559737    0.906341146056
 H    1.443448990152    0.538261440263   -0.635877853944
LI   -1.337631902923    1.520604919726    0.755692262990
