8

 N   -0.350123062070   -0.477135405102   -0.340773494147
 H   -0.754772062070    0.341473594898    0.108522505853
 H   -0.754772062070   -1.295744405102    0.108522505853
 C    1.110314937930   -0.477135405102   -0.202736494147
 H    1.509417937930   -1.359076405102   -0.709125494147
 H    1.478995937930   -0.477135405102    0.833093505853
 H    1.509417937930    0.404805594898   -0.709125494147
LI   -1.629510496505    2.111078252451    1.079775319125
