8

 N   -0.335463295898   -0.506792259628   -0.357050747526
 H   -0.740112295898    0.311816740372    0.092245252474
 H   -0.740112295898   -1.325401259628    0.092245252474
 C    1.124974704102   -0.506792259628   -0.219013747526
 H    1.524077704102   -1.388733259628   -0.725402747526
 H    1.493655704102   -0.506792259628    0.816816252474
 H    1.524077704102    0.375148740372   -0.725402747526
LI   -1.694372406190    2.242294548612    1.151793776044
