8

 N   -0.306143763552   -0.566105968679   -0.389605254282
 H   -0.710792763552    0.252503031321    0.059690745718
 H   -0.710792763552   -1.384714968679    0.059690745718
 C    1.154294236448   -0.566105968679   -0.251568254282
 H    1.553397236448   -1.448046968679   -0.757957254282
 H    1.522975236448   -0.566105968679    0.784261745718
 H    1.553397236448    0.315835031321   -0.757957254282
LI   -1.824096225560    2.504727140934    1.295830689882
