8

 N   -0.269494348121   -0.640248104992   -0.430298387729
 H   -0.674143348121    0.178360895008    0.018997612271
 H   -0.674143348121   -1.458857104992    0.018997612271
 C    1.190943651879   -0.640248104992   -0.292261387729
 H    1.590046651879   -1.522189104992   -0.798650387729
 H    1.559624651879   -0.640248104992    0.743568612271
 H    1.590046651879    0.241692895008   -0.798650387729
LI   -1.986250999773    2.832767881337    1.475876832180
