8

 N   -0.254834581948   -0.669904959518   -0.446575641107
 H   -0.659483581948    0.148704040482    0.002720358893
 H   -0.659483581948   -1.488513959518    0.002720358893
 C    1.205603418052   -0.669904959518   -0.308538641107
 H    1.604706418052   -1.551845959518   -0.814927641107
 H    1.574284418052   -0.669904959518    0.727291358893
 H    1.604706418052    0.212036040482   -0.814927641107
LI   -2.051112909458    2.963984177499    1.547895289099
