8

 N   -0.218185166516   -0.744047095831   -0.487268774553
 H   -0.622834166516    0.074561904169   -0.037972774553
 H   -0.622834166516   -1.562656095831   -0.037972774553
 C    1.242252833484   -0.744047095831   -0.349231774553
 H    1.641355833484   -1.625988095831   -0.855620774553
 H    1.610933833484   -0.744047095831    0.686598225447
 H    1.641355833484    0.137893904169   -0.855620774553
LI   -2.213267683670    3.292024917901    1.727941431396
