8

 N   -0.210855283430   -0.758875523094   -0.495407401242
 H   -0.615504283430    0.059733476906   -0.046111401242
 H   -0.615504283430   -1.577484523094   -0.046111401242
 C    1.249582716570   -0.758875523094   -0.357370401242
 H    1.648685716570   -1.640816523094   -0.863759401242
 H    1.618263716570   -0.758875523094    0.678459598758
 H    1.648685716570    0.123065476906   -0.863759401242
LI   -2.245698638513    3.357633065982    1.763950659856
