8

 N   -0.188865634171   -0.803360804882   -0.519823281310
 H   -0.593514634171    0.015248195118   -0.070527281310
 H   -0.593514634171   -1.621969804882   -0.070527281310
 C    1.271572365829   -0.803360804882   -0.381786281310
 H    1.670675365829   -1.685301804882   -0.888175281310
 H    1.640253365829   -0.803360804882    0.654043718690
 H    1.670675365829    0.078580195118   -0.888175281310
LI   -2.342991503040    3.554457510224    1.871978345234
