8

 N   -0.181535751084   -0.818189232145   -0.527961907999
 H   -0.586184751084    0.000419767855   -0.078665907999
 H   -0.586184751084   -1.636798232145   -0.078665907999
 C    1.278902248916   -0.818189232145   -0.389924907999
 H    1.678005248916   -1.700130232145   -0.896313907999
 H    1.647583248916   -0.818189232145    0.645905092001
 H    1.678005248916    0.063751767855   -0.896313907999
LI   -2.375422457883    3.620065658304    1.907987573694
