8

 N   -0.174205867998   -0.833017659408   -0.536100534688
 H   -0.578854867998   -0.014408659408   -0.086804534688
 H   -0.578854867998   -1.651626659408   -0.086804534688
 C    1.286232132002   -0.833017659408   -0.398063534688
 H    1.685335132002   -1.714958659408   -0.904452534688
 H    1.654913132002   -0.833017659408    0.637766465312
 H    1.685335132002    0.048923340592   -0.904452534688
LI   -2.407853412725    3.685673806385    1.943996802153
