8

 N   -0.144886335652   -0.892331368459   -0.568655041445
 H   -0.549535335652   -0.073722368459   -0.119359041445
 H   -0.549535335652   -1.710940368459   -0.119359041445
 C    1.315551664348   -0.892331368459   -0.430618041445
 H    1.714654664348   -1.774272368459   -0.937007041445
 H    1.684232664348   -0.892331368459    0.605211958555
 H    1.714654664348   -0.010390368459   -0.937007041445
LI   -2.537577232095    3.948106398707    2.088033715991
