8

 N   -0.137556452566   -0.907159795722   -0.576793668135
 H   -0.542205452566   -0.088550795722   -0.127497668135
 H   -0.542205452566   -1.725768795722   -0.127497668135
 C    1.322881547434   -0.907159795722   -0.438756668135
 H    1.721984547434   -1.789100795722   -0.945145668135
 H    1.691562547434   -0.907159795722    0.597073331865
 H    1.721984547434   -0.025218795722   -0.945145668135
LI   -2.570008186937    4.013714546788    2.124042944451
