8

 N   -0.130226569480   -0.921988222984   -0.584932294824
 H   -0.534875569480   -0.103379222984   -0.135636294824
 H   -0.534875569480   -1.740597222984   -0.135636294824
 C    1.330211430520   -0.921988222984   -0.446895294824
 H    1.729314430520   -1.803929222984   -0.953284294824
 H    1.698892430520   -0.921988222984    0.588934705176
 H    1.729314430520   -0.040047222984   -0.953284294824
LI   -2.602439141780    4.079322694868    2.160052172910
