8

 N   -0.115566803307   -0.951645077510   -0.601209548202
 H   -0.520215803307   -0.133036077510   -0.151913548202
 H   -0.520215803307   -1.770254077510   -0.151913548202
 C    1.344871196693   -0.951645077510   -0.463172548202
 H    1.743974196693   -1.833586077510   -0.969561548202
 H    1.713552196693   -0.951645077510    0.572657451798
 H    1.743974196693   -0.069704077510   -0.969561548202
LI   -2.667301051465    4.210538991030    2.232070629830
