8

 N   -0.108236920221   -0.966473504772   -0.609348174892
 H   -0.512885920221   -0.147864504772   -0.160052174892
 H   -0.512885920221   -1.785082504772   -0.160052174892
 C    1.352201079779   -0.966473504772   -0.471311174892
 H    1.751304079779   -1.848414504772   -0.977700174892
 H    1.720882079779   -0.966473504772    0.564518825108
 H    1.751304079779   -0.084532504772   -0.977700174892
LI   -2.699732006307    4.276147139110    2.268079858289
