8

 N   -0.100907037134   -0.981301932035   -0.617486801581
 H   -0.505556037134   -0.162692932035   -0.168190801581
 H   -0.505556037134   -1.799910932035   -0.168190801581
 C    1.359530962866   -0.981301932035   -0.479449801581
 H    1.758633962866   -1.863242932035   -0.985838801581
 H    1.728211962866   -0.981301932035    0.556380198419
 H    1.758633962866   -0.099360932035   -0.985838801581
LI   -2.732162961150    4.341755287191    2.304089086749
