8

 N   -0.078917387875   -1.025787213823   -0.641902681648
 H   -0.483566387875   -0.207178213823   -0.192606681648
 H   -0.483566387875   -1.844396213823   -0.192606681648
 C    1.381520612125   -1.025787213823   -0.503865681648
 H    1.780623612125   -1.907728213823   -1.010254681648
 H    1.750201612125   -1.025787213823    0.531964318352
 H    1.780623612125   -0.143846213823   -1.010254681648
LI   -2.829455825677    4.538579731432    2.412116772127
