8

 N   -0.064257621702   -1.055444068349   -0.658179935027
 H   -0.468906621702   -0.236835068349   -0.208883935027
 H   -0.468906621702   -1.874053068349   -0.208883935027
 C    1.396180378298   -1.055444068349   -0.520142935027
 H    1.795283378298   -1.937385068349   -1.026531935027
 H    1.764861378298   -1.055444068349    0.515687064973
 H    1.795283378298   -0.173503068349   -1.026531935027
LI   -2.894317735362    4.669796027594    2.484135229046
