8

 N   -0.056927738616   -1.070272495612   -0.666318561716
 H   -0.461576738616   -0.251663495612   -0.217022561716
 H   -0.461576738616   -1.888881495612   -0.217022561716
 C    1.403510261384   -1.070272495612   -0.528281561716
 H    1.802613261384   -1.952213495612   -1.034670561716
 H    1.772191261384   -1.070272495612    0.507548438284
 H    1.802613261384   -0.188331495612   -1.034670561716
LI   -2.926748690205    4.735404175674    2.520144457506
