8

 N   -0.049597855530   -1.085100922874   -0.674457188405
 H   -0.454246855530   -0.266491922874   -0.225161188405
 H   -0.454246855530   -1.903709922874   -0.225161188405
 C    1.410840144470   -1.085100922874   -0.536420188405
 H    1.809943144470   -1.967041922874   -1.042809188405
 H    1.779521144470   -1.085100922874    0.499409811595
 H    1.809943144470   -0.203159922874   -1.042809188405
LI   -2.959179645047    4.801012323755    2.556153685965
