8

 N   -0.042267972443   -1.099929350137   -0.682595815095
 H   -0.446916972443   -0.281320350137   -0.233299815095
 H   -0.446916972443   -1.918538350137   -0.233299815095
 C    1.418170027557   -1.099929350137   -0.544558815095
 H    1.817273027557   -1.981870350137   -1.050947815095
 H    1.786851027557   -1.099929350137    0.491271184905
 H    1.817273027557   -0.217988350137   -1.050947815095
LI   -2.991610599890    4.866620471835    2.592162914425
