8

 N   -0.020278323184   -1.144414631925   -0.707011695162
 H   -0.424927323184   -0.325805631925   -0.257715695162
 H   -0.424927323184   -1.963023631925   -0.257715695162
 C    1.440159676816   -1.144414631925   -0.568974695162
 H    1.839262676816   -2.026355631925   -1.075363695162
 H    1.808840676816   -1.144414631925    0.466855304838
 H    1.839262676816   -0.262473631925   -1.075363695162
LI   -3.088903464417    5.063444916077    2.700190599803
