8

 N    0.009041209161   -1.203728340976   -0.739566201919
 H   -0.395607790839   -0.385119340976   -0.290270201919
 H   -0.395607790839   -2.022337340976   -0.290270201919
 C    1.469479209161   -1.203728340976   -0.601529201919
 H    1.868582209161   -2.085669340976   -1.107918201919
 H    1.838160209161   -1.203728340976    0.434300798081
 H    1.868582209161   -0.321787340976   -1.107918201919
LI   -3.218627283787    5.325877508399    2.844227513641
