8

 N    0.053020507679   -1.292698904553   -0.788397962054
 H   -0.351628492321   -0.474089904553   -0.339101962054
 H   -0.351628492321   -2.111307904553   -0.339101962054
 C    1.513458507679   -1.292698904553   -0.650360962054
 H    1.912561507679   -2.174639904553   -1.156749962054
 H    1.882139507679   -1.292698904553    0.385469037946
 H    1.912561507679   -0.410757904553   -1.156749962054
LI   -3.413213012842    5.719526396883    3.060282884398
