8

 N    0.067680273852   -1.322355759078   -0.804675215433
 H   -0.336968726148   -0.503746759078   -0.355379215433
 H   -0.336968726148   -2.140964759078   -0.355379215433
 C    1.528118273852   -1.322355759078   -0.666638215433
 H    1.927221273852   -2.204296759078   -1.173027215433
 H    1.896799273852   -1.322355759078    0.369191784567
 H    1.927221273852   -0.440414759078   -1.173027215433
LI   -3.478074922527    5.850742693044    3.132301341317
