8

 N    0.089669923111   -1.366841040866   -0.829091095501
 H   -0.314979076889   -0.548232040866   -0.379795095501
 H   -0.314979076889   -2.185450040866   -0.379795095501
 C    1.550107923111   -1.366841040866   -0.691054095501
 H    1.949210923111   -2.248782040866   -1.197443095501
 H    1.918788923111   -1.366841040866    0.344775904499
 H    1.949210923111   -0.484900040866   -1.197443095501
LI   -3.575367787055    6.047567137286    3.240329026696
