8

 N    0.096999806197   -1.381669468129   -0.837229722190
 H   -0.307649193803   -0.563060468129   -0.387933722190
 H   -0.307649193803   -2.200278468129   -0.387933722190
 C    1.557437806197   -1.381669468129   -0.699192722190
 H    1.956540806197   -2.263610468129   -1.205581722190
 H    1.926118806197   -1.381669468129    0.336637277810
 H    1.956540806197   -0.499728468129   -1.205581722190
LI   -3.607798741897    6.113175285366    3.276338255155
