8

 N    0.104329689284   -1.396497895392   -0.845368348879
 H   -0.300319310716   -0.577888895392   -0.396072348879
 H   -0.300319310716   -2.215106895392   -0.396072348879
 C    1.564767689284   -1.396497895392   -0.707331348879
 H    1.963870689284   -2.278438895392   -1.213720348879
 H    1.933448689284   -1.396497895392    0.328498651121
 H    1.963870689284   -0.514556895392   -1.213720348879
LI   -3.640229696740    6.178783433447    3.312347483615
