8

 N    0.118989455456   -1.426154749917   -0.861645602258
 H   -0.285659544544   -0.607545749917   -0.412349602258
 H   -0.285659544544   -2.244763749917   -0.412349602258
 C    1.579427455456   -1.426154749917   -0.723608602258
 H    1.978530455456   -2.308095749917   -1.229997602258
 H    1.948108455456   -1.426154749917    0.312221397742
 H    1.978530455456   -0.544213749917   -1.229997602258
LI   -3.705091606425    6.309999729608    3.384365940534
