8

 N    0.140979104716   -1.470640031706   -0.886061482325
 H   -0.263669895284   -0.652031031706   -0.436765482325
 H   -0.263669895284   -2.289249031706   -0.436765482325
 C    1.601417104716   -1.470640031706   -0.748024482325
 H    2.000520104716   -2.352581031706   -1.254413482325
 H    1.970098104716   -1.470640031706    0.287805517675
 H    2.000520104716   -0.588699031706   -1.254413482325
LI   -3.802384470952    6.506824173850    3.492393625912
