8

 N    0.184958403234   -1.559610595282   -0.934893242461
 H   -0.219690596766   -0.741001595282   -0.485597242461
 H   -0.219690596766   -2.378219595282   -0.485597242461
 C    1.645396403234   -1.559610595282   -0.796856242461
 H    2.044499403234   -2.441551595282   -1.303245242461
 H    2.014077403234   -1.559610595282    0.238973757539
 H    2.044499403234   -0.677669595282   -1.303245242461
LI   -3.996970200007    6.900473062333    3.708448996669
