8

 N    0.192288286320   -1.574439022545   -0.943031869150
 H   -0.212360713680   -0.755830022545   -0.493735869150
 H   -0.212360713680   -2.393048022545   -0.493735869150
 C    1.652726286320   -1.574439022545   -0.804994869150
 H    2.051829286320   -2.456380022545   -1.311383869150
 H    2.021407286320   -1.574439022545    0.230835130850
 H    2.051829286320   -0.692498022545   -1.311383869150
LI   -4.029401154850    6.966081210414    3.744458225129
