8

 N    0.199618169406   -1.589267449808   -0.951170495839
 H   -0.205030830594   -0.770658449808   -0.501874495839
 H   -0.205030830594   -2.407876449808   -0.501874495839
 C    1.660056169406   -1.589267449808   -0.813133495839
 H    2.059159169406   -2.471208449808   -1.319522495839
 H    2.028737169406   -1.589267449808    0.222696504161
 H    2.059159169406   -0.707326449808   -1.319522495839
LI   -4.061832109692    7.031689358495    3.780467453589
