8

 N    0.214277935579   -1.618924304333   -0.967447749217
 H   -0.190371064421   -0.800315304333   -0.518151749217
 H   -0.190371064421   -2.437533304333   -0.518151749217
 C    1.674715935579   -1.618924304333   -0.829410749217
 H    2.073818935579   -2.500865304333   -1.335799749217
 H    2.043396935579   -1.618924304333    0.206419250783
 H    2.073818935579   -0.736983304333   -1.335799749217
LI   -4.126694019377    7.162905654656    3.852485910508
