17

 N   -1.724222716370   -1.711745742223   -0.003013681411
 C   -0.514034649526   -1.056539538547    0.000947942557
 N    0.719377764777   -1.655217233009    0.012986227462
 C    1.689800964833   -0.765041091398    0.001113770489
 N    1.486724127420    0.596597042116   -0.005721389853
 H    2.290551252671    1.216557581871   -0.087709412275
 N    3.015255719070   -1.183715813078   -0.077233532746
 H    3.669791924402   -0.651912588678    0.490407243984
 H    3.094060806461   -2.184415957013    0.084349805243
 C    0.227450385103    1.282630745647    0.007232396824
 O    0.199870015998    2.510803830424    0.003144268396
 C   -0.845334740873    0.308937356373    0.013433594764
 N   -2.216408042642    0.495268401686    0.013358410048
 C   -2.709931537153   -0.743334612359    0.003028310383
 H   -3.767429450421   -0.997481234191    0.000081665957
 H   -1.849319712901   -2.718328827455   -0.011673232442
LI    0.175174318256    3.610520486169   -0.000516276668
