17

 N   -1.724023414417   -1.720620797266   -0.002984139676
 C   -0.513835347573   -1.065414593590    0.000977484292
 N    0.719577066730   -1.664092288052    0.013015769197
 C    1.690000266786   -0.773916146441    0.001143312224
 N    1.486923429373    0.587721987073   -0.005691848118
 H    2.290750554624    1.207682526828   -0.087679870540
 N    3.015455021023   -1.192590868121   -0.077203991011
 H    3.669991226355   -0.660787643721    0.490436785719
 H    3.094260108414   -2.193291012056    0.084379346978
 C    0.227649687056    1.273755690604    0.007261938559
 O    0.200069317951    2.501928775381    0.003173810131
 C   -0.845135438920    0.300062301330    0.013463136499
 N   -2.216208740689    0.486393346643    0.013387951783
 C   -2.709732235200   -0.752209667402    0.003057852118
 H   -3.767230148468   -1.006356289234    0.000111207692
 H   -1.849120410948   -2.727203882498   -0.011643690707
LI    0.170883493347    3.801593913989   -0.001152288580
