17

 N   -1.723923763441   -1.725058324787   -0.002969368808
 C   -0.513735696597   -1.069852121111    0.000992255160
 N    0.719676717706   -1.668529815573    0.013030540065
 C    1.690099917762   -0.778353673962    0.001158083092
 N    1.487023080349    0.583284459552   -0.005677077250
 H    2.290850205600    1.203244999307   -0.087665099672
 N    3.015554671999   -1.197028395642   -0.077189220143
 H    3.670090877331   -0.665225171242    0.490451556587
 H    3.094359759390   -2.197728539577    0.084394117846
 C    0.227749338032    1.269318163083    0.007276709427
 O    0.200168968927    2.497491247860    0.003188580999
 C   -0.845035787944    0.295624773809    0.013477907367
 N   -2.216109089713    0.481955819122    0.013402722651
 C   -2.709632584224   -0.756647194923    0.003072622986
 H   -3.767130497492   -1.010793816755    0.000125978560
 H   -1.849020759972   -2.731641410019   -0.011628919839
LI    0.168738080892    3.897130627899   -0.001470294537
