17

 N   -1.723724461488   -1.733933379831   -0.002939827072
 C   -0.513536394644   -1.078727176155    0.001021796896
 N    0.719876019659   -1.677404870617    0.013060081801
 C    1.690299219715   -0.787228729006    0.001187624828
 N    1.487222382302    0.574409404508   -0.005647535514
 H    2.291049507553    1.194369944263   -0.087635557936
 N    3.015753973952   -1.205903450686   -0.077159678407
 H    3.670290179284   -0.674100226286    0.490481098323
 H    3.094559061343   -2.206603594621    0.084423659582
 C    0.227948639985    1.260443108039    0.007306251163
 O    0.200368270880    2.488616192816    0.003218122735
 C   -0.844836485991    0.286749718765    0.013507449103
 N   -2.215909787760    0.473080764078    0.013432264387
 C   -2.709433282271   -0.765522249967    0.003102164722
 H   -3.766931195539   -1.019668871799    0.000155520296
 H   -1.848821458019   -2.740516465063   -0.011599378103
LI    0.164447255982    4.088204055718   -0.002106306449
