17

 N   -1.723624810512   -1.738370907352   -0.002925056204
 C   -0.513436743668   -1.083164703676    0.001036567764
 N    0.719975670635   -1.681842398138    0.013074852669
 C    1.690398870691   -0.791666256527    0.001202395696
 N    1.487322033278    0.569971876987   -0.005632764646
 H    2.291149158529    1.189932416742   -0.087620787068
 N    3.015853624928   -1.210340978207   -0.077144907539
 H    3.670389830260   -0.678537753807    0.490495869191
 H    3.094658712319   -2.211041122142    0.084438430450
 C    0.228048290961    1.256005580518    0.007321022031
 O    0.200467921856    2.484178665295    0.003232893603
 C   -0.844736835015    0.282312191244    0.013522219971
 N   -2.215810136784    0.468643236557    0.013447035255
 C   -2.709333631295   -0.769959777488    0.003116935590
 H   -3.766831544563   -1.024106399320    0.000170291164
 H   -1.848721807043   -2.744953992584   -0.011584607235
LI    0.162301843528    4.183740769628   -0.002424312405
