17

 N   -1.723226206607   -1.756121017438   -0.002865972732
 C   -0.513038139763   -1.100914813762    0.001095651236
 N    0.720374274540   -1.699592508224    0.013133936141
 C    1.690797474596   -0.809416366613    0.001261479168
 N    1.487720637183    0.552221766901   -0.005573681174
 H    2.291547762434    1.172182306656   -0.087561703596
 N    3.016252228833   -1.228091088293   -0.077085824067
 H    3.670788434165   -0.696287863893    0.490554952663
 H    3.095057316224   -2.228791232228    0.084497513922
 C    0.228446894866    1.238255470432    0.007380105503
 O    0.200866525761    2.466428555209    0.003291977075
 C   -0.844338231110    0.264562081158    0.013581303443
 N   -2.215411532879    0.450893126471    0.013506118727
 C   -2.708935027390   -0.787709887574    0.003176019062
 H   -3.766432940658   -1.041856509406    0.000229374636
 H   -1.848323203138   -2.762704102670   -0.011525523763
LI    0.153720193709    4.565887625267   -0.003696336229
