17

 N   -1.722927253678   -1.769433600003   -0.002821660129
 C   -0.512739186834   -1.114227396327    0.001139963839
 N    0.720673227469   -1.712905090789    0.013178248744
 C    1.691096427525   -0.822728949178    0.001305791771
 N    1.488019590112    0.538909184336   -0.005529368571
 H    2.291846715363    1.158869724091   -0.087517390993
 N    3.016551181762   -1.241403670858   -0.077041511464
 H    3.671087387094   -0.709600446458    0.490599265266
 H    3.095356269153   -2.242103814793    0.084541826525
 C    0.228745847795    1.224942887867    0.007424418106
 O    0.201165478690    2.453115972644    0.003336289678
 C   -0.844039278181    0.251249498593    0.013625616046
 N   -2.215112579950    0.437580543906    0.013550431330
 C   -2.708636074461   -0.801022470139    0.003220331665
 H   -3.766133987729   -1.055169091971    0.000273687239
 H   -1.848024250209   -2.776016685235   -0.011481211160
LI    0.147283956344    4.852497766997   -0.004650354097
