17

 N   -1.722727951725   -1.778308655046   -0.002792118393
 C   -0.512539884881   -1.123102451370    0.001169505575
 N    0.720872529422   -1.721780145832    0.013207790480
 C    1.691295729478   -0.831604004221    0.001335333507
 N    1.488218892065    0.530034129293   -0.005499826835
 H    2.292046017316    1.149994669048   -0.087487849257
 N    3.016750483715   -1.250278725901   -0.077011969728
 H    3.671286689047   -0.718475501501    0.490628807002
 H    3.095555571106   -2.250978869836    0.084571368261
 C    0.228945149748    1.216067832824    0.007453959842
 O    0.201364780643    2.444240917601    0.003365831414
 C   -0.843839976228    0.242374443550    0.013655157782
 N   -2.214913277997    0.428705488863    0.013579973066
 C   -2.708436772508   -0.809897525182    0.003249873401
 H   -3.765934685776   -1.064044147014    0.000303228975
 H   -1.847824948256   -2.784891740278   -0.011451669424
LI    0.142993131435    5.043571194816   -0.005286366009
