17

 N   -1.722628300749   -1.782746182568   -0.002777347525
 C   -0.512440233905   -1.127539978892    0.001184276443
 N    0.720972180398   -1.726217673354    0.013222561348
 C    1.691395380454   -0.836041531743    0.001350104375
 N    1.488318543041    0.525596601771   -0.005485055967
 H    2.292145668292    1.145557141526   -0.087473078389
 N    3.016850134691   -1.254716253423   -0.076997198860
 H    3.671386340023   -0.722913029023    0.490643577870
 H    3.095655222082   -2.255416397358    0.084586139129
 C    0.229044800724    1.211630305302    0.007468730710
 O    0.201464431619    2.439803390079    0.003380602282
 C   -0.843740325252    0.237936916028    0.013669928650
 N   -2.214813627021    0.424267961341    0.013594743934
 C   -2.708337121532   -0.814335052704    0.003264644269
 H   -3.765835034800   -1.068481674536    0.000317999843
 H   -1.847725297280   -2.789329267800   -0.011436898556
LI    0.140847718980    5.139107908726   -0.005604371966
