17

 N   -1.722329347820   -1.796058765132   -0.002733034921
 C   -0.512141280976   -1.140852561456    0.001228589047
 N    0.721271133327   -1.739530255918    0.013266873952
 C    1.691694333383   -0.849354114307    0.001394416979
 N    1.488617495970    0.512284019207   -0.005440743363
 H    2.292444621221    1.132244558962   -0.087428765785
 N    3.017149087620   -1.268028835987   -0.076952886256
 H    3.671685292952   -0.736225611587    0.490687890474
 H    3.095954175011   -2.268728979922    0.084630451733
 C    0.229343753653    1.198317722738    0.007513043314
 O    0.201763384548    2.426490807515    0.003424914886
 C   -0.843441372323    0.224624333464    0.013714241254
 N   -2.214514674092    0.410955378777    0.013639056538
 C   -2.708038168603   -0.827647635268    0.003308956873
 H   -3.765536081871   -1.081794257100    0.000362312447
 H   -1.847426344351   -2.802641850364   -0.011392585952
LI    0.134411481615    5.425718050456   -0.006558389834
