17

 N   -1.722229696844   -1.800496292654   -0.002718264053
 C   -0.512041630000   -1.145290088978    0.001243359915
 N    0.721370784303   -1.743967783440    0.013281644820
 C    1.691793984359   -0.853791641829    0.001409187847
 N    1.488717146946    0.507846491685   -0.005425972495
 H    2.292544272197    1.127807031440   -0.087413994917
 N    3.017248738596   -1.272466363509   -0.076938115388
 H    3.671784943928   -0.740663139109    0.490702661342
 H    3.096053825987   -2.273166507444    0.084645222601
 C    0.229443404629    1.193880195216    0.007527814182
 O    0.201863035524    2.422053279993    0.003439685754
 C   -0.843341721347    0.220186805942    0.013729012122
 N   -2.214415023116    0.406517851255    0.013653827406
 C   -2.707938517627   -0.832085162790    0.003323727741
 H   -3.765436430895   -1.086231784622    0.000377083315
 H   -1.847326693375   -2.807079377886   -0.011377815084
LI    0.132266069161    5.521254764365   -0.006876395790
