17

 N   -1.722130045868   -1.804933820175   -0.002703493185
 C   -0.511941979024   -1.149727616499    0.001258130783
 N    0.721470435279   -1.748405310961    0.013296415688
 C    1.691893635335   -0.858229169350    0.001423958715
 N    1.488816797922    0.503408964164   -0.005411201627
 H    2.292643923173    1.123369503919   -0.087399224049
 N    3.017348389572   -1.276903891030   -0.076923344520
 H    3.671884594904   -0.745100666630    0.490717432210
 H    3.096153476963   -2.277604034965    0.084659993469
 C    0.229543055605    1.189442667695    0.007542585050
 O    0.201962686500    2.417615752472    0.003454456622
 C   -0.843242070371    0.215749278421    0.013743782990
 N   -2.214315372140    0.402080323734    0.013668598274
 C   -2.707838866651   -0.836522690311    0.003338498609
 H   -3.765336779919   -1.090669312143    0.000391854183
 H   -1.847227042399   -2.811516905407   -0.011363044216
LI    0.130120656706    5.616791478275   -0.007194401746
