17

 N   -1.722030394891   -1.809371347697   -0.002688722317
 C   -0.511842328047   -1.154165144021    0.001272901651
 N    0.721570086256   -1.752842838483    0.013311186556
 C    1.691993286312   -0.862666696872    0.001438729583
 N    1.488916448899    0.498971436642   -0.005396430759
 H    2.292743574150    1.118931976397   -0.087384453181
 N    3.017448040549   -1.281341418552   -0.076908573652
 H    3.671984245881   -0.749538194152    0.490732203078
 H    3.096253127940   -2.282041562487    0.084674764337
 C    0.229642706582    1.185005140173    0.007557355918
 O    0.202062337477    2.413178224950    0.003469227490
 C   -0.843142419394    0.211311750899    0.013758553858
 N   -2.214215721163    0.397642796212    0.013683369142
 C   -2.707739215674   -0.840960217833    0.003353269477
 H   -3.765237128942   -1.095106839665    0.000406625051
 H   -1.847127391422   -2.815954432929   -0.011348273348
LI    0.127975244251    5.712328192185   -0.007512407702
