17

 N   -1.721831092939   -1.818246402740   -0.002659180581
 C   -0.511643026095   -1.163040199064    0.001302443387
 N    0.721769388208   -1.761717893526    0.013340728292
 C    1.692192588264   -0.871541751915    0.001468271319
 N    1.489115750851    0.490096381599   -0.005366889023
 H    2.292942876102    1.110056921354   -0.087354911445
 N    3.017647342501   -1.290216473595   -0.076879031916
 H    3.672183547833   -0.758413249195    0.490761744814
 H    3.096452429892   -2.290916617530    0.084704306073
 C    0.229842008534    1.176130085130    0.007586897654
 O    0.202261639429    2.404303169907    0.003498769226
 C   -0.842943117442    0.202436695856    0.013788095594
 N   -2.214016419211    0.388767741169    0.013712910878
 C   -2.707539913722   -0.849835272876    0.003382811213
 H   -3.765037826990   -1.103981894708    0.000436166787
 H   -1.846928089470   -2.824829487972   -0.011318731612
LI    0.123684419342    5.903401620005   -0.008148419614
