17

 N   -1.721631790986   -1.827121457783   -0.002629638846
 C   -0.511443724142   -1.171915254107    0.001331985122
 N    0.721968690161   -1.770592948569    0.013370270027
 C    1.692391890217   -0.880416806958    0.001497813054
 N    1.489315052804    0.481221326556   -0.005337347288
 H    2.293142178055    1.101181866311   -0.087325369710
 N    3.017846644454   -1.299091528638   -0.076849490181
 H    3.672382849786   -0.767288304238    0.490791286549
 H    3.096651731845   -2.299791672573    0.084733847808
 C    0.230041310487    1.167255030087    0.007616439389
 O    0.202460941382    2.395428114864    0.003528310961
 C   -0.842743815489    0.193561640813    0.013817637329
 N   -2.213817117258    0.379892686126    0.013742452613
 C   -2.707340611769   -0.858710327919    0.003412352948
 H   -3.764838525037   -1.112856949751    0.000465708522
 H   -1.846728787517   -2.833704543015   -0.011289189877
LI    0.119393594432    6.094475047824   -0.008784431526
