17

 N   -1.721332838057   -1.840434040348   -0.002585326242
 C   -0.511144771213   -1.185227836672    0.001376297726
 N    0.722267643090   -1.783905531134    0.013414582631
 C    1.692690843146   -0.893729389523    0.001542125658
 N    1.489614005733    0.467908743991   -0.005293034684
 H    2.293441130984    1.087869283746   -0.087281057106
 N    3.018145597383   -1.312404111203   -0.076805177577
 H    3.672681802715   -0.780600886803    0.490835599153
 H    3.096950684774   -2.313104255138    0.084778160412
 C    0.230340263416    1.153942447522    0.007660751993
 O    0.202759894311    2.382115532299    0.003572623565
 C   -0.842444862560    0.180249058248    0.013861949933
 N   -2.213518164329    0.366580103561    0.013786765217
 C   -2.707041658840   -0.872022910484    0.003456665552
 H   -3.764539572108   -1.126169532316    0.000510021126
 H   -1.846429834588   -2.847017125580   -0.011244877273
LI    0.112957357068    6.381085189554   -0.009738449395
