17

 N   -1.721033885128   -1.853746622912   -0.002541013638
 C   -0.510845818284   -1.198540419236    0.001420610330
 N    0.722566596019   -1.797218113698    0.013458895235
 C    1.692989796075   -0.907041972087    0.001586438262
 N    1.489912958662    0.454596161427   -0.005248722080
 H    2.293740083913    1.074556701182   -0.087236744502
 N    3.018444550312   -1.325716693767   -0.076760864973
 H    3.672980755644   -0.793913469367    0.490879911757
 H    3.097249637703   -2.326416837702    0.084822473016
 C    0.230639216345    1.140629864958    0.007705064597
 O    0.203058847240    2.368802949735    0.003616936169
 C   -0.842145909631    0.166936475684    0.013906262537
 N   -2.213219211400    0.353267520997    0.013831077821
 C   -2.706742705911   -0.885335493048    0.003500978156
 H   -3.764240619179   -1.139482114880    0.000554333730
 H   -1.846130881659   -2.860329708144   -0.011200564669
LI    0.106521119703    6.667695331283   -0.010692467263
