17

 N   -1.720834583176   -1.862621677955   -0.002511471902
 C   -0.510646516332   -1.207415474279    0.001450152066
 N    0.722765897971   -1.806093168741    0.013488436971
 C    1.693189098027   -0.915917027130    0.001615979998
 N    1.490112260614    0.445721106384   -0.005219180344
 H    2.293939385865    1.065681646139   -0.087207202766
 N    3.018643852264   -1.334591748810   -0.076731323237
 H    3.673180057596   -0.802788524410    0.490909453493
 H    3.097448939655   -2.335291892745    0.084852014752
 C    0.230838518297    1.131754809915    0.007734606333
 O    0.203258149192    2.359927894692    0.003646477905
 C   -0.841946607679    0.158061420641    0.013935804273
 N   -2.213019909448    0.344392465954    0.013860619557
 C   -2.706543403959   -0.894210548091    0.003530519892
 H   -3.764041317227   -1.148357169923    0.000583875466
 H   -1.845931579707   -2.869204763187   -0.011171022933
LI    0.102230294794    6.858768759103   -0.011328479175
