17

 N   -1.720734932199   -1.867059205477   -0.002496701034
 C   -0.510546865355   -1.211853001801    0.001464922934
 N    0.722865548948   -1.810530696263    0.013503207839
 C    1.693288749004   -0.920354554652    0.001630750866
 N    1.490211911591    0.441283578862   -0.005204409476
 H    2.294039036842    1.061244118617   -0.087192431898
 N    3.018743503241   -1.339029276332   -0.076716552369
 H    3.673279708573   -0.807226051932    0.490924224361
 H    3.097548590632   -2.339729420267    0.084866785620
 C    0.230938169274    1.127317282393    0.007749377201
 O    0.203357800169    2.355490367170    0.003661248773
 C   -0.841846956702    0.153623893119    0.013950575141
 N   -2.212920258471    0.339954938432    0.013875390425
 C   -2.706443752982   -0.898648075613    0.003545290760
 H   -3.763941666250   -1.152794697445    0.000598646334
 H   -1.845831928730   -2.873642290709   -0.011156252065
LI    0.100084882339    6.954305473013   -0.011646485131
