17

 N   -1.720635281223   -1.871496732998   -0.002481930167
 C   -0.510447214379   -1.216290529322    0.001479693801
 N    0.722965199924   -1.814968223784    0.013517978706
 C    1.693388399980   -0.924792082173    0.001645521733
 N    1.490311562567    0.436846051341   -0.005189638609
 H    2.294138687818    1.056806591096   -0.087177661031
 N    3.018843154217   -1.343466803853   -0.076701781502
 H    3.673379359549   -0.811663579453    0.490938995228
 H    3.097648241608   -2.344166947788    0.084881556487
 C    0.231037820250    1.122879754872    0.007764148068
 O    0.203457451145    2.351052839649    0.003676019640
 C   -0.841747305726    0.149186365598    0.013965346008
 N   -2.212820607495    0.335517410911    0.013890161292
 C   -2.706344102006   -0.903085603134    0.003560061627
 H   -3.763842015274   -1.157232224966    0.000613417201
 H   -1.845732277754   -2.878079818230   -0.011141481198
LI    0.097939469884    7.049842186923   -0.011964491087
