17

 N   -1.720435979271   -1.880371788041   -0.002452388431
 C   -0.510247912427   -1.225165584365    0.001509235537
 N    0.723164501876   -1.823843278827    0.013547520442
 C    1.693587701932   -0.933667137216    0.001675063469
 N    1.490510864519    0.427970996298   -0.005160096873
 H    2.294337989770    1.047931536053   -0.087148119295
 N    3.019042456169   -1.352341858896   -0.076672239766
 H    3.673578661501   -0.820538634496    0.490968536964
 H    3.097847543560   -2.353042002831    0.084911098223
 C    0.231237122202    1.114004699829    0.007793689804
 O    0.203656753097    2.342177784606    0.003705561376
 C   -0.841548003774    0.140311310555    0.013994887744
 N   -2.212621305543    0.326642355868    0.013919703028
 C   -2.706144800054   -0.911960658177    0.003589603363
 H   -3.763642713322   -1.166107280009    0.000642958937
 H   -1.845532975802   -2.886954873273   -0.011111939462
LI    0.093648644975    7.240915614742   -0.012600502999
