17

 N   -1.720236677318   -1.889246843084   -0.002422846695
 C   -0.510048610474   -1.234040639408    0.001538777273
 N    0.723363803829   -1.832718333870    0.013577062178
 C    1.693787003885   -0.942542192259    0.001704605205
 N    1.490710166472    0.419095941255   -0.005130555137
 H    2.294537291723    1.039056481010   -0.087118577559
 N    3.019241758122   -1.361216913939   -0.076642698030
 H    3.673777963454   -0.829413689539    0.490998078700
 H    3.098046845513   -2.361917057874    0.084940639959
 C    0.231436424155    1.105129644786    0.007823231540
 O    0.203856055050    2.333302729563    0.003735103112
 C   -0.841348701821    0.131436255512    0.014024429480
 N   -2.212422003590    0.317767300825    0.013949244764
 C   -2.705945498101   -0.920835713220    0.003619145099
 H   -3.763443411369   -1.174982335052    0.000672500673
 H   -1.845333673849   -2.895829928316   -0.011082397726
LI    0.089357820065    7.431989042562   -0.013236514911
