17

 N   -1.719937724389   -1.902559425649   -0.002378534091
 C   -0.509749657545   -1.247353221973    0.001583089877
 N    0.723662756758   -1.846030916435    0.013621374782
 C    1.694085956814   -0.955854774824    0.001748917809
 N    1.491009119401    0.405783358690   -0.005086242533
 H    2.294836244652    1.025743898445   -0.087074264955
 N    3.019540711051   -1.374529496504   -0.076598385426
 H    3.674076916383   -0.842726272104    0.491042391304
 H    3.098345798442   -2.375229640439    0.084984952563
 C    0.231735377084    1.091817062221    0.007867544144
 O    0.204155007979    2.319990146998    0.003779415716
 C   -0.841049748892    0.118123672947    0.014068742084
 N   -2.212123050661    0.304454718260    0.013993557368
 C   -2.705646545172   -0.934148295785    0.003663457703
 H   -3.763144458440   -1.188294917617    0.000716813277
 H   -1.845034720920   -2.909142510881   -0.011038085122
LI    0.082921582701    7.718599184291   -0.014190532780
