17

 N   -1.718642261697   -1.960247283429   -0.002186512808
 C   -0.508454194853   -1.305041079753    0.001775111160
 N    0.724958219450   -1.903718774215    0.013813396065
 C    1.695381419506   -1.013542632604    0.001940939092
 N    1.492304582093    0.348095500910   -0.004894221250
 H    2.296131707344    0.968056040665   -0.086882243672
 N    3.020836173743   -1.432217354284   -0.076406364143
 H    3.675372379075   -0.900414129884    0.491234412587
 H    3.099641261134   -2.432917498219    0.085176973846
 C    0.233030839776    1.034129204441    0.008059565427
 O    0.205450470671    2.262302289218    0.003971436999
 C   -0.839754286200    0.060435815167    0.014260763367
 N   -2.210827587969    0.246766860480    0.014185578651
 C   -2.704351082480   -0.991836153565    0.003855478986
 H   -3.761848995748   -1.245982775397    0.000908834560
 H   -1.843739258228   -2.966830368661   -0.010846063839
LI    0.055031220788    8.960576465119   -0.018324610209
