17

 N   -1.718442959745   -1.969122338472   -0.002156971072
 C   -0.508254892901   -1.313916134796    0.001804652896
 N    0.725157521402   -1.912593829258    0.013842937801
 C    1.695580721458   -1.022417687647    0.001970480828
 N    1.492503884045    0.339220445867   -0.004864679514
 H    2.296331009296    0.959180985622   -0.086852701936
 N    3.021035475695   -1.441092409327   -0.076376822407
 H    3.675571681027   -0.909289184927    0.491263954323
 H    3.099840563086   -2.441792553262    0.085206515582
 C    0.233230141728    1.025254149398    0.008089107163
 O    0.205649772623    2.253427234175    0.004000978735
 C   -0.839554984248    0.051560760124    0.014290305103
 N   -2.210628286017    0.237891805437    0.014215120387
 C   -2.704151780528   -1.000711208608    0.003885020722
 H   -3.761649693796   -1.254857830440    0.000938376296
 H   -1.843539956276   -2.975705423704   -0.010816522103
LI    0.050740395879    9.151649892939   -0.018960622121
