17

 N   -1.718343308768   -1.973559865994   -0.002142200205
 C   -0.508155241924   -1.318353662318    0.001819423763
 N    0.725257172379   -1.917031356780    0.013857708668
 C    1.695680372435   -1.026855215169    0.001985251695
 N    1.492603535022    0.334782918345   -0.004849908647
 H    2.296430660273    0.954743458100   -0.086837931069
 N    3.021135126672   -1.445529936849   -0.076362051540
 H    3.675671332004   -0.913726712449    0.491278725190
 H    3.099940214063   -2.446230080784    0.085221286449
 C    0.233329792705    1.020816621876    0.008103878030
 O    0.205749423600    2.248989706653    0.004015749602
 C   -0.839455333271    0.047123232602    0.014305075970
 N   -2.210528635040    0.233454277915    0.014229891254
 C   -2.704052129551   -1.005148736130    0.003899791589
 H   -3.761550042819   -1.259295357962    0.000953147163
 H   -1.843440305299   -2.980142951226   -0.010801751236
LI    0.048594983424    9.247186606848   -0.019278628077
