17

 N   -1.718144006816   -1.982434921037   -0.002112658469
 C   -0.507955939972   -1.327228717361    0.001848965499
 N    0.725456474331   -1.925906411823    0.013887250404
 C    1.695879674387   -1.035730270212    0.002014793431
 N    1.492802836974    0.325907863302   -0.004820366911
 H    2.296629962225    0.945868403057   -0.086808389333
 N    3.021334428624   -1.454404991892   -0.076332509804
 H    3.675870633956   -0.922601767492    0.491308266926
 H    3.100139516015   -2.455105135827    0.085250828185
 C    0.233529094657    1.011941566833    0.008133419766
 O    0.205948725552    2.240114651610    0.004045291338
 C   -0.839256031319    0.038248177559    0.014334617706
 N   -2.210329333088    0.224579222872    0.014259432990
 C   -2.703852827599   -1.014023791173    0.003929333325
 H   -3.761350740867   -1.268170413005    0.000982688899
 H   -1.843241003347   -2.989018006269   -0.010772209500
LI    0.044304158515    9.438260034668   -0.019914639989
