17

 N   -1.718044355839   -1.986872448558   -0.002097887601
 C   -0.507856288995   -1.331666244882    0.001863736367
 N    0.725556125308   -1.930343939344    0.013902021272
 C    1.695979325364   -1.040167797733    0.002029564299
 N    1.492902487951    0.321470335781   -0.004805596043
 H    2.296729613202    0.941430875536   -0.086793618465
 N    3.021434079601   -1.458842519413   -0.076317738936
 H    3.675970284933   -0.927039295013    0.491323037794
 H    3.100239166992   -2.459542663348    0.085265599053
 C    0.233628745634    1.007504039312    0.008148190634
 O    0.206048376529    2.235677124089    0.004060062206
 C   -0.839156380342    0.033810650038    0.014349388574
 N   -2.210229682111    0.220141695351    0.014274203858
 C   -2.703753176622   -1.018461318694    0.003944104193
 H   -3.761251089890   -1.272607940526    0.000997459767
 H   -1.843141352370   -2.993455533790   -0.010757438632
LI    0.042158746060    9.533796748578   -0.020232645945
