17

 N   -1.717546100958   -2.009060086166   -0.002024033261
 C   -0.507358034114   -1.353853882490    0.001937590707
 N    0.726054380189   -1.952531576952    0.013975875612
 C    1.696477580245   -1.062355435341    0.002103418639
 N    1.493400742832    0.299282698173   -0.004731741703
 H    2.297227868083    0.919243237928   -0.086719764125
 N    3.021932334482   -1.481030157021   -0.076243884596
 H    3.676468539814   -0.949226932621    0.491396892134
 H    3.100737421873   -2.481730300956    0.085339453393
 C    0.234127000515    0.985316401704    0.008222044974
 O    0.206546631410    2.213489486481    0.004133916546
 C   -0.838658125461    0.011623012430    0.014423242914
 N   -2.209731427230    0.197954057743    0.014348058198
 C   -2.703254921741   -1.040648956302    0.004017958533
 H   -3.760752835009   -1.294795578134    0.001071314107
 H   -1.842643097489   -3.015643171398   -0.010683584292
LI    0.031431683786   10.011480318127   -0.021822675725
