17

 N   -1.717247148029   -2.022372668731   -0.001979720657
 C   -0.507059081185   -1.367166465055    0.001981903311
 N    0.726353333118   -1.965844159517    0.014020188216
 C    1.696776533174   -1.075668017906    0.002147731243
 N    1.493699695761    0.285970115608   -0.004687429099
 H    2.297526821012    0.905930655363   -0.086675451521
 N    3.022231287411   -1.494342739586   -0.076199571992
 H    3.676767492743   -0.962539515186    0.491441204738
 H    3.101036374802   -2.495042883521    0.085383765997
 C    0.234425953444    0.972003819139    0.008266357578
 O    0.206845584339    2.200176903916    0.004178229150
 C   -0.838359172532   -0.001689570135    0.014467555518
 N   -2.209432474301    0.184641475178    0.014392370802
 C   -2.702955968812   -1.053961538867    0.004062271137
 H   -3.760453882080   -1.308108160699    0.001115626711
 H   -1.842344144560   -3.028955753963   -0.010639271688
LI    0.024995446421   10.298090459856   -0.022776693594
