17

 N   -1.717147497053   -2.026810196252   -0.001964949790
 C   -0.506959430209   -1.371603992576    0.001996674178
 N    0.726452984094   -1.970281687038    0.014034959083
 C    1.696876184150   -1.080105545427    0.002162502110
 N    1.493799346737    0.281532588087   -0.004672658232
 H    2.297626471988    0.901493127842   -0.086660680654
 N    3.022330938387   -1.498780267107   -0.076184801125
 H    3.676867143719   -0.966977042707    0.491455975605
 H    3.101136025778   -2.499480411042    0.085398536864
 C    0.234525604420    0.967566291618    0.008281128445
 O    0.206945235315    2.195739376395    0.004193000017
 C   -0.838259521556   -0.006127097656    0.014482326385
 N   -2.209332823325    0.180203947657    0.014407141669
 C   -2.702856317836   -1.058399066388    0.004077042004
 H   -3.760354231104   -1.312545688220    0.001130397578
 H   -1.842244493584   -3.033393281484   -0.010624500821
LI    0.022850033967   10.393627173766   -0.023094699550
