17

 N   -1.716250638266   -2.066747943946   -0.001832011978
 C   -0.506062571422   -1.411541740270    0.002129611990
 N    0.727349842881   -2.010219434732    0.014167896895
 C    1.697773042937   -1.120043293121    0.002295439922
 N    1.494696205524    0.241594840393   -0.004539720420
 H    2.298523330775    0.861555380148   -0.086527742842
 N    3.023227797174   -1.538718014801   -0.076051863313
 H    3.677764002506   -1.006914790401    0.491588913417
 H    3.102032884565   -2.539418158736    0.085531474676
 C    0.235422463207    0.927628543924    0.008414066257
 O    0.207842094102    2.155801628701    0.004325937829
 C   -0.837362662769   -0.046064845350    0.014615264197
 N   -2.208435964538    0.140266199963    0.014540079481
 C   -2.701959459049   -1.098336814082    0.004209979816
 H   -3.759457372317   -1.352483435914    0.001263335390
 H   -1.841347634797   -3.073331029178   -0.010491563009
LI    0.003541321874   11.253457598955   -0.025956753154
