17

 N   -1.716150987290   -2.071185471468   -0.001817241110
 C   -0.505962920446   -1.415979267792    0.002144382858
 N    0.727449493857   -2.014656962254    0.014182667763
 C    1.697872693913   -1.124480820643    0.002310210790
 N    1.494795856500    0.237157312871   -0.004524949552
 H    2.298622981751    0.857117852626   -0.086512971974
 N    3.023327448150   -1.543155542323   -0.076037092445
 H    3.677863653482   -1.011352317923    0.491603684285
 H    3.102132535541   -2.543855686258    0.085546245544
 C    0.235522114183    0.923191016402    0.008428837125
 O    0.207941745078    2.151364101179    0.004340708697
 C   -0.837263011793   -0.050502372872    0.014630035065
 N   -2.208336313562    0.135828672441    0.014554850349
 C   -2.701859808073   -1.102774341604    0.004224750684
 H   -3.759357721341   -1.356920963436    0.001278106258
 H   -1.841247983821   -3.077768556700   -0.010476792141
LI    0.001395909419   11.348994312864   -0.026274759111
