17

 N   -1.716051336314   -2.075622998989   -0.001802470242
 C   -0.505863269470   -1.420416795313    0.002159153726
 N    0.727549144833   -2.019094489775    0.014197438631
 C    1.697972344889   -1.128918348164    0.002324981658
 N    1.494895507476    0.232719785350   -0.004510178684
 H    2.298722632727    0.852680325105   -0.086498201106
 N    3.023427099126   -1.547593069844   -0.076022321577
 H    3.677963304458   -1.015789845444    0.491618455153
 H    3.102232186517   -2.548293213779    0.085561016412
 C    0.235621765159    0.918753488881    0.008443607993
 O    0.208041396054    2.146926573658    0.004355479565
 C   -0.837163360817   -0.054939900393    0.014644805933
 N   -2.208236662586    0.131391144920    0.014569621217
 C   -2.701760157097   -1.107211869125    0.004239521552
 H   -3.759258070365   -1.361358490957    0.001292877126
 H   -1.841148332845   -3.082206084221   -0.010462021273
LI   -0.000749503036   11.444531026774   -0.026592765067
