17

 N   -1.715852034361   -2.084498054032   -0.001772928507
 C   -0.505663967517   -1.429291850356    0.002188695461
 N    0.727748446786   -2.027969544818    0.014226980366
 C    1.698171646842   -1.137793403207    0.002354523393
 N    1.495094809429    0.223844730307   -0.004480636949
 H    2.298921934680    0.843805270062   -0.086468659371
 N    3.023626401079   -1.556468124887   -0.075992779842
 H    3.678162606411   -1.024664900487    0.491647996888
 H    3.102431488470   -2.557168268822    0.085590558147
 C    0.235821067112    0.909878433838    0.008473149728
 O    0.208240698007    2.138051518615    0.004385021300
 C   -0.836964058864   -0.063814955436    0.014674347668
 N   -2.208037360633    0.122516089877    0.014599162952
 C   -2.701560855144   -1.116086924168    0.004269063287
 H   -3.759058768412   -1.370233546000    0.001322418861
 H   -1.840949030892   -3.091081139264   -0.010432479538
LI   -0.005040327946   11.635604454594   -0.027228776979
