10

 H   -1.468433890428   -1.682729573887   -1.309223438686
 H   -0.566957890428   -0.480515573887   -2.284470438686
 H    0.334518109572   -1.682729573887   -1.309223438686
 C   -0.566957890428   -1.051880573887   -1.344751438686
 S   -0.566957890428    0.145994426113    0.027786561314
 C   -0.566957890428   -1.051880573887    1.400324561314
 H    0.334518109572   -1.682729573887    1.364796561314
 H   -0.566957890428   -0.480515573887    2.340043561314
 H   -1.468433890428   -1.682729573887    1.364796561314
RB    0.414102371763    0.333634809413   -0.020295124449
