10

 H   -1.638521257556   -1.715260968738   -1.300887470291
 H   -0.737045257556   -0.513046968738   -2.276134470291
 H    0.164430742444   -1.715260968738   -1.300887470291
 C   -0.737045257556   -1.084411968738   -1.336415470291
 S   -0.737045257556    0.113463031262    0.036122529709
 C   -0.737045257556   -1.084411968738    1.408660529709
 H    0.164430742444   -1.715260968738    1.373132529709
 H   -0.737045257556   -0.513046968738    2.348379529709
 H   -1.638521257556   -1.715260968738    1.373132529709
RB    0.538333083291    0.357395529552   -0.026383661783
