10

 H   -1.695217046599   -1.726104767022   -1.298108814160
 H   -0.793741046599   -0.523890767022   -2.273355814160
 H    0.107734953401   -1.726104767022   -1.298108814160
 C   -0.793741046599   -1.095255767022   -1.333636814160
 S   -0.793741046599    0.102619232978    0.038901185840
 C   -0.793741046599   -1.095255767022    1.411439185840
 H    0.107734953401   -1.726104767022    1.375911185840
 H   -0.793741046599   -0.523890767022    2.351158185840
 H   -1.695217046599   -1.726104767022    1.375911185840
RB    0.579743320468    0.365315769598   -0.028413174228
