10

 H   -1.922000202770   -1.769479960158   -1.286994189634
 H   -1.020524202770   -0.567265960158   -2.262241189634
 H   -0.119048202770   -1.769479960158   -1.286994189634
 C   -1.020524202770   -1.138630960158   -1.322522189634
 S   -1.020524202770    0.059244039842    0.050015810366
 C   -1.020524202770   -1.138630960158    1.422553810366
 H   -0.119048202770   -1.769479960158    1.387025810366
 H   -1.020524202770   -0.567265960158    2.362272810366
 H   -1.922000202770   -1.769479960158    1.387025810366
RB    0.745384269173    0.396996729783   -0.036531224008
