10

 H   -2.318870726069   -1.845386548145   -1.267543596714
 H   -1.417394726069   -0.643172548145   -2.242790596714
 H   -0.515918726069   -1.845386548145   -1.267543596714
 C   -1.417394726069   -1.214537548145   -1.303071596714
 S   -1.417394726069   -0.016662548145    0.069466403286
 C   -1.417394726069   -1.214537548145    1.442004403286
 H   -0.515918726069   -1.845386548145    1.406476403286
 H   -1.417394726069   -0.643172548145    2.381723403286
 H   -2.318870726069   -1.845386548145    1.406476403286
RB    1.035255929407    0.452438410106   -0.050737811122
