10

 H   -2.488958093198   -1.877917942996   -1.259207628320
 H   -1.587482093198   -0.675703942996   -2.234454628320
 H   -0.686006093198   -1.877917942996   -1.259207628320
 C   -1.587482093198   -1.247068942996   -1.294735628320
 S   -1.587482093198   -0.049193942996    0.077802371680
 C   -1.587482093198   -1.247068942996    1.450340371680
 H   -0.686006093198   -1.877917942996    1.414812371680
 H   -1.587482093198   -0.675703942996    2.390059371680
 H   -2.488958093198   -1.877917942996    1.414812371680
RB    1.159486640935    0.476199130244   -0.056826348456
