10

 H   -2.545653882241   -1.888761741280   -1.256428972188
 H   -1.644177882241   -0.686547741280   -2.231675972188
 H   -0.742701882241   -1.888761741280   -1.256428972188
 C   -1.644177882241   -1.257912741280   -1.291956972188
 S   -1.644177882241   -0.060037741280    0.080581027812
 C   -1.644177882241   -1.257912741280    1.453119027812
 H   -0.742701882241   -1.888761741280    1.417591027812
 H   -1.644177882241   -0.686547741280    2.392838027812
 H   -2.545653882241   -1.888761741280    1.417591027812
RB    1.200896878112    0.484119370291   -0.058855860901
