10

 H   -2.659045460326   -1.910449337848   -1.250871659925
 H   -1.757569460326   -0.708235337848   -2.226118659925
 H   -0.856093460326   -1.910449337848   -1.250871659925
 C   -1.757569460326   -1.279600337848   -1.286399659925
 S   -1.757569460326   -0.081725337848    0.086138340075
 C   -1.757569460326   -1.279600337848    1.458676340075
 H   -0.856093460326   -1.910449337848    1.423148340075
 H   -1.757569460326   -0.708235337848    2.398395340075
 H   -2.659045460326   -1.910449337848    1.423148340075
RB    1.283717352464    0.499959850383   -0.062914885791
