10

 H   -2.885828616497   -1.953824530983   -1.239757035400
 H   -1.984352616497   -0.751610530983   -2.215004035400
 H   -1.082876616497   -1.953824530983   -1.239757035400
 C   -1.984352616497   -1.322975530983   -1.275285035400
 S   -1.984352616497   -0.125100530983    0.097252964600
 C   -1.984352616497   -1.322975530983    1.469790964600
 H   -1.082876616497   -1.953824530983    1.434262964600
 H   -1.984352616497   -0.751610530983    2.409509964600
 H   -2.885828616497   -1.953824530983    1.434262964600
RB    1.449358301169    0.531640810568   -0.071032935571
