10

 H   -2.999220194583   -1.975512127551   -1.234199723137
 H   -2.097744194583   -0.773298127551   -2.209446723137
 H   -1.196268194583   -1.975512127551   -1.234199723137
 C   -2.097744194583   -1.344663127551   -1.269727723137
 S   -2.097744194583   -0.146788127551    0.102810276863
 C   -2.097744194583   -1.344663127551    1.475348276863
 H   -1.196268194583   -1.975512127551    1.439820276863
 H   -2.097744194583   -0.773298127551    2.415067276863
 H   -2.999220194583   -1.975512127551    1.439820276863
RB    1.532178775522    0.547481290660   -0.075091960460
