10

 H   -3.112611772668   -1.997199724119   -1.228642410874
 H   -2.211135772668   -0.794985724119   -2.203889410874
 H   -1.309659772668   -1.997199724119   -1.228642410874
 C   -2.211135772668   -1.366350724119   -1.264170410874
 S   -2.211135772668   -0.168475724119    0.108367589126
 C   -2.211135772668   -1.366350724119    1.480905589126
 H   -1.309659772668   -1.997199724119    1.445377589126
 H   -2.211135772668   -0.794985724119    2.420624589126
 H   -3.112611772668   -1.997199724119    1.445377589126
RB    1.614999249874    0.563321770752   -0.079150985350
