10

 H   -3.226003350754   -2.018887320686   -1.223085098611
 H   -2.324527350754   -0.816673320686   -2.198332098611
 H   -1.423051350754   -2.018887320686   -1.223085098611
 C   -2.324527350754   -1.388038320686   -1.258613098611
 S   -2.324527350754   -0.190163320686    0.113924901389
 C   -2.324527350754   -1.388038320686    1.486462901389
 H   -1.423051350754   -2.018887320686    1.450934901389
 H   -2.324527350754   -0.816673320686    2.426181901389
 H   -3.226003350754   -2.018887320686    1.450934901389
RB    1.697819724227    0.579162250845   -0.083210010240
