10

 H   -3.339394928840   -2.040574917254   -1.217527786348
 H   -2.437918928840   -0.838360917254   -2.192774786348
 H   -1.536442928840   -2.040574917254   -1.217527786348
 C   -2.437918928840   -1.409725917254   -1.253055786348
 S   -2.437918928840   -0.211850917254    0.119482213652
 C   -2.437918928840   -1.409725917254    1.492020213652
 H   -1.536442928840   -2.040574917254    1.456492213652
 H   -2.437918928840   -0.838360917254    2.431739213652
 H   -3.339394928840   -2.040574917254    1.456492213652
RB    1.780640198579    0.595002730937   -0.087269035130
