10

 H   -3.396090717882   -2.051418715538   -1.214749130217
 H   -2.494614717882   -0.849204715538   -2.189996130217
 H   -1.593138717882   -2.051418715538   -1.214749130217
 C   -2.494614717882   -1.420569715538   -1.250277130217
 S   -2.494614717882   -0.222694715538    0.122260869783
 C   -2.494614717882   -1.420569715538    1.494798869783
 H   -1.593138717882   -2.051418715538    1.459270869783
 H   -2.494614717882   -0.849204715538    2.434517869783
 H   -3.396090717882   -2.051418715538    1.459270869783
RB    1.822050435756    0.602922970983   -0.089298547574
