10

 H   -3.452786506925   -2.062262513822   -1.211970474085
 H   -2.551310506925   -0.860048513822   -2.187217474085
 H   -1.649834506925   -2.062262513822   -1.211970474085
 C   -2.551310506925   -1.431413513822   -1.247498474085
 S   -2.551310506925   -0.233538513822    0.125039525915
 C   -2.551310506925   -1.431413513822    1.497577525915
 H   -1.649834506925   -2.062262513822    1.462049525915
 H   -2.551310506925   -0.860048513822    2.437296525915
 H   -3.452786506925   -2.062262513822    1.462049525915
RB    1.863460672932    0.610843211029   -0.091328060019
