10

 H   -3.509482295968   -2.073106312106   -1.209191817954
 H   -2.608006295968   -0.870892312106   -2.184438817954
 H   -1.706530295968   -2.073106312106   -1.209191817954
 C   -2.608006295968   -1.442257312106   -1.244719817954
 S   -2.608006295968   -0.244382312106    0.127818182046
 C   -2.608006295968   -1.442257312106    1.500356182046
 H   -1.706530295968   -2.073106312106    1.464828182046
 H   -2.608006295968   -0.870892312106    2.440075182046
 H   -3.509482295968   -2.073106312106    1.464828182046
RB    1.904870910108    0.618763451076   -0.093357572464
