10

 H   -3.679569663096   -2.105637706957   -1.200855849559
 H   -2.778093663096   -0.903423706957   -2.176102849559
 H   -1.876617663096   -2.105637706957   -1.200855849559
 C   -2.778093663096   -1.474788706957   -1.236383849559
 S   -2.778093663096   -0.276913706957    0.136154150441
 C   -2.778093663096   -1.474788706957    1.508692150441
 H   -1.876617663096   -2.105637706957    1.473164150441
 H   -2.778093663096   -0.903423706957    2.448411150441
 H   -3.679569663096   -2.105637706957    1.473164150441
RB    2.029101621637    0.642524171214   -0.099446109799
