10

 H   -3.792961241182   -2.127325303525   -1.195298537297
 H   -2.891485241182   -0.925111303525   -2.170545537297
 H   -1.990009241182   -2.127325303525   -1.195298537297
 C   -2.891485241182   -1.496476303525   -1.230826537297
 S   -2.891485241182   -0.298601303525    0.141711462703
 C   -2.891485241182   -1.496476303525    1.514249462703
 H   -1.990009241182   -2.127325303525    1.478721462703
 H   -2.891485241182   -0.925111303525    2.453968462703
 H   -3.792961241182   -2.127325303525    1.478721462703
RB    2.111922095989    0.658364651306   -0.103505134688
