10

 H   -3.849657030225   -2.138169101809   -1.192519881165
 H   -2.948181030225   -0.935955101809   -2.167766881165
 H   -2.046705030225   -2.138169101809   -1.192519881165
 C   -2.948181030225   -1.507320101809   -1.228047881165
 S   -2.948181030225   -0.309445101809    0.144490118835
 C   -2.948181030225   -1.507320101809    1.517028118835
 H   -2.046705030225   -2.138169101809    1.481500118835
 H   -2.948181030225   -0.935955101809    2.456747118835
 H   -3.849657030225   -2.138169101809    1.481500118835
RB    2.153332333166    0.666284891353   -0.105534647133
