10

 H   -3.906352819267   -2.149012900093   -1.189741225034
 H   -3.004876819267   -0.946798900093   -2.164988225034
 H   -2.103400819267   -2.149012900093   -1.189741225034
 C   -3.004876819267   -1.518163900093   -1.225269225034
 S   -3.004876819267   -0.320288900093    0.147268774966
 C   -3.004876819267   -1.518163900093    1.519806774966
 H   -2.103400819267   -2.149012900093    1.484278774966
 H   -3.004876819267   -0.946798900093    2.459525774966
 H   -3.906352819267   -2.149012900093    1.484278774966
RB    2.194742570342    0.674205131399   -0.107564159578
