10

 H   -3.963048608310   -2.159856698376   -1.186962568902
 H   -3.061572608310   -0.957642698376   -2.162209568902
 H   -2.160096608310   -2.159856698376   -1.186962568902
 C   -3.061572608310   -1.529007698376   -1.222490568902
 S   -3.061572608310   -0.331132698376    0.150047431098
 C   -3.061572608310   -1.529007698376    1.522585431098
 H   -2.160096608310   -2.159856698376    1.487057431098
 H   -3.061572608310   -0.957642698376    2.462304431098
 H   -3.963048608310   -2.159856698376    1.487057431098
RB    2.236152807518    0.682125371445   -0.109593672023
