10

 H   -4.019744397353   -2.170700496660   -1.184183912771
 H   -3.118268397353   -0.968486496660   -2.159430912771
 H   -2.216792397353   -2.170700496660   -1.184183912771
 C   -3.118268397353   -1.539851496660   -1.219711912771
 S   -3.118268397353   -0.341976496660    0.152826087229
 C   -3.118268397353   -1.539851496660    1.525364087229
 H   -2.216792397353   -2.170700496660    1.489836087229
 H   -3.118268397353   -0.968486496660    2.465083087229
 H   -4.019744397353   -2.170700496660    1.489836087229
RB    2.277563044694    0.690045611491   -0.111623184468
