10

 H   -4.189831764481   -2.203231891512   -1.175847944377
 H   -3.288355764481   -1.001017891512   -2.151094944377
 H   -2.386879764481   -2.203231891512   -1.175847944377
 C   -3.288355764481   -1.572382891512   -1.211375944377
 S   -3.288355764481   -0.374507891512    0.161162055623
 C   -3.288355764481   -1.572382891512    1.533700055623
 H   -2.386879764481   -2.203231891512    1.498172055623
 H   -3.288355764481   -1.001017891512    2.473419055623
 H   -4.189831764481   -2.203231891512    1.498172055623
RB    2.401793756223    0.713806331630   -0.117711721803
