10

 H   -4.246527553524   -2.214075689796   -1.173069288245
 H   -3.345051553524   -1.011861689796   -2.148316288245
 H   -2.443575553524   -2.214075689796   -1.173069288245
 C   -3.345051553524   -1.583226689796   -1.208597288245
 S   -3.345051553524   -0.385351689796    0.163940711755
 C   -3.345051553524   -1.583226689796    1.536478711755
 H   -2.443575553524   -2.214075689796    1.500950711755
 H   -3.345051553524   -1.011861689796    2.476197711755
 H   -4.246527553524   -2.214075689796    1.500950711755
RB    2.443203993399    0.721726571676   -0.119741234247
