10

 H   -4.303223342567   -2.224919488080   -1.170290632114
 H   -3.401747342567   -1.022705488080   -2.145537632114
 H   -2.500271342567   -2.224919488080   -1.170290632114
 C   -3.401747342567   -1.594070488080   -1.205818632114
 S   -3.401747342567   -0.396195488080    0.166719367886
 C   -3.401747342567   -1.594070488080    1.539257367886
 H   -2.500271342567   -2.224919488080    1.503729367886
 H   -3.401747342567   -1.022705488080    2.478976367886
 H   -4.303223342567   -2.224919488080    1.503729367886
RB    2.484614230576    0.729646811722   -0.121770746692
