10

 H   -4.359919131610   -2.235763286363   -1.167511975982
 H   -3.458443131610   -1.033549286363   -2.142758975982
 H   -2.556967131610   -2.235763286363   -1.167511975982
 C   -3.458443131610   -1.604914286363   -1.203039975982
 S   -3.458443131610   -0.407039286363    0.169498024018
 C   -3.458443131610   -1.604914286363    1.542036024018
 H   -2.556967131610   -2.235763286363    1.506508024018
 H   -3.458443131610   -1.033549286363    2.481755024018
 H   -4.359919131610   -2.235763286363    1.506508024018
RB    2.526024467752    0.737567051768   -0.123800259137
