10

 H   -4.416614920652   -2.246607084647   -1.164733319851
 H   -3.515138920652   -1.044393084647   -2.139980319851
 H   -2.613662920652   -2.246607084647   -1.164733319851
 C   -3.515138920652   -1.615758084647   -1.200261319851
 S   -3.515138920652   -0.417883084647    0.172276680149
 C   -3.515138920652   -1.615758084647    1.544814680149
 H   -2.613662920652   -2.246607084647    1.509286680149
 H   -3.515138920652   -1.044393084647    2.484533680149
 H   -4.416614920652   -2.246607084647    1.509286680149
RB    2.567434704928    0.745487291814   -0.125829771582
