10

 H   -4.586702287781   -2.279138479499   -1.156397351456
 H   -3.685226287781   -1.076924479499   -2.131644351456
 H   -2.783750287781   -2.279138479499   -1.156397351456
 C   -3.685226287781   -1.648289479499   -1.191925351456
 S   -3.685226287781   -0.450414479499    0.180612648544
 C   -3.685226287781   -1.648289479499    1.553150648544
 H   -2.783750287781   -2.279138479499    1.517622648544
 H   -3.685226287781   -1.076924479499    2.492869648544
 H   -4.586702287781   -2.279138479499    1.517622648544
RB    2.691665416457    0.769248011953   -0.131918308917
