10

 H   -4.643398076823   -2.289982277783   -1.153618695325
 H   -3.741922076823   -1.087768277783   -2.128865695325
 H   -2.840446076823   -2.289982277783   -1.153618695325
 C   -3.741922076823   -1.659133277783   -1.189146695325
 S   -3.741922076823   -0.461258277783    0.183391304675
 C   -3.741922076823   -1.659133277783    1.555929304675
 H   -2.840446076823   -2.289982277783    1.520401304675
 H   -3.741922076823   -1.087768277783    2.495648304675
 H   -4.643398076823   -2.289982277783    1.520401304675
RB    2.733075653633    0.777168251999   -0.133947821362
