10

 H   -4.700093865866   -2.300826076067   -1.150840039194
 H   -3.798617865866   -1.098612076067   -2.126087039194
 H   -2.897141865866   -2.300826076067   -1.150840039194
 C   -3.798617865866   -1.669977076067   -1.186368039194
 S   -3.798617865866   -0.472102076067    0.186169960806
 C   -3.798617865866   -1.669977076067    1.558707960806
 H   -2.897141865866   -2.300826076067    1.523179960806
 H   -3.798617865866   -1.098612076067    2.498426960806
 H   -4.700093865866   -2.300826076067    1.523179960806
RB    2.774485890810    0.785088492045   -0.135977333806
