10

 H   -4.756789654909   -2.311669874350   -1.148061383062
 H   -3.855313654909   -1.109455874350   -2.123308383062
 H   -2.953837654909   -2.311669874350   -1.148061383062
 C   -3.855313654909   -1.680820874350   -1.183589383062
 S   -3.855313654909   -0.482945874350    0.188948616938
 C   -3.855313654909   -1.680820874350    1.561486616938
 H   -2.953837654909   -2.311669874350    1.525958616938
 H   -3.855313654909   -1.109455874350    2.501205616938
 H   -4.756789654909   -2.311669874350    1.525958616938
RB    2.815896127986    0.793008732091   -0.138006846251
