10

 H   -4.870181232995   -2.333357470918   -1.142504070799
 H   -3.968705232995   -1.131143470918   -2.117751070799
 H   -3.067229232995   -2.333357470918   -1.142504070799
 C   -3.968705232995   -1.702508470918   -1.178032070799
 S   -3.968705232995   -0.504633470918    0.194505929201
 C   -3.968705232995   -1.702508470918    1.567043929201
 H   -3.067229232995   -2.333357470918    1.531515929201
 H   -3.968705232995   -1.131143470918    2.506762929201
 H   -4.870181232995   -2.333357470918    1.531515929201
RB    2.898716602338    0.808849212184   -0.142065871141
