10

 H   -5.096964389166   -2.376732664053   -1.131389446273
 H   -4.195488389166   -1.174518664053   -2.106636446273
 H   -3.294012389166   -2.376732664053   -1.131389446273
 C   -4.195488389166   -1.745883664053   -1.166917446273
 S   -4.195488389166   -0.548008664053    0.205620553727
 C   -4.195488389166   -1.745883664053    1.578158553727
 H   -3.294012389166   -2.376732664053    1.542630553727
 H   -4.195488389166   -1.174518664053    2.517877553727
 H   -5.096964389166   -2.376732664053    1.542630553727
RB    3.064357551043    0.840530172368   -0.150183920921
