10

 H   -5.153660178208   -2.387576462337   -1.128610790142
 H   -4.252184178208   -1.185362462337   -2.103857790142
 H   -3.350708178208   -2.387576462337   -1.128610790142
 C   -4.252184178208   -1.756727462337   -1.164138790142
 S   -4.252184178208   -0.558852462337    0.208399209858
 C   -4.252184178208   -1.756727462337    1.580937209858
 H   -3.350708178208   -2.387576462337    1.545409209858
 H   -4.252184178208   -1.185362462337    2.520656209858
 H   -5.153660178208   -2.387576462337    1.545409209858
RB    3.105767788220    0.848450412415   -0.152213433365
