10

 H   -5.267051756294   -2.409264058905   -1.123053477879
 H   -4.365575756294   -1.207050058905   -2.098300477879
 H   -3.464099756294   -2.409264058905   -1.123053477879
 C   -4.365575756294   -1.778415058905   -1.158581477879
 S   -4.365575756294   -0.580540058905    0.213956522121
 C   -4.365575756294   -1.778415058905    1.586494522121
 H   -3.464099756294   -2.409264058905    1.550966522121
 H   -4.365575756294   -1.207050058905    2.526213522121
 H   -5.267051756294   -2.409264058905    1.550966522121
RB    3.188588262572    0.864290892507   -0.156272458255
