10

 H   -5.437139123422   -2.441795453757   -1.114717509485
 H   -4.535663123422   -1.239581453757   -2.089964509485
 H   -3.634187123422   -2.441795453757   -1.114717509485
 C   -4.535663123422   -1.810946453757   -1.150245509485
 S   -4.535663123422   -0.613071453757    0.222292490515
 C   -4.535663123422   -1.810946453757    1.594830490515
 H   -3.634187123422   -2.441795453757    1.559302490515
 H   -4.535663123422   -1.239581453757    2.534549490515
 H   -5.437139123422   -2.441795453757    1.559302490515
RB    3.312818974101    0.888051612645   -0.162360995590
