10

 H   -5.607226490551   -2.474326848608   -1.106381541091
 H   -4.705750490551   -1.272112848608   -2.081628541091
 H   -3.804274490551   -2.474326848608   -1.106381541091
 C   -4.705750490551   -1.843477848608   -1.141909541091
 S   -4.705750490551   -0.645602848608    0.230628458909
 C   -4.705750490551   -1.843477848608    1.603166458909
 H   -3.804274490551   -2.474326848608    1.567638458909
 H   -4.705750490551   -1.272112848608    2.542885458909
 H   -5.607226490551   -2.474326848608    1.567638458909
RB    3.437049685630    0.911812332784   -0.168449532924
