10

 H   -5.663922279593   -2.485170646892   -1.103602884959
 H   -4.762446279593   -1.282956646892   -2.078849884959
 H   -3.860970279593   -2.485170646892   -1.103602884959
 C   -4.762446279593   -1.854321646892   -1.139130884959
 S   -4.762446279593   -0.656446646892    0.233407115041
 C   -4.762446279593   -1.854321646892    1.605945115041
 H   -3.860970279593   -2.485170646892    1.570417115041
 H   -4.762446279593   -1.282956646892    2.545664115041
 H   -5.663922279593   -2.485170646892    1.570417115041
RB    3.478459922806    0.919732572830   -0.170479045369
