10

 H   -5.834009646722   -2.517702041744   -1.095266916565
 H   -4.932533646722   -1.315488041744   -2.070513916565
 H   -4.031057646722   -2.517702041744   -1.095266916565
 C   -4.932533646722   -1.886853041744   -1.130794916565
 S   -4.932533646722   -0.688978041744    0.241743083435
 C   -4.932533646722   -1.886853041744    1.614281083435
 H   -4.031057646722   -2.517702041744    1.578753083435
 H   -4.932533646722   -1.315488041744    2.554000083435
 H   -5.834009646722   -2.517702041744    1.578753083435
RB    3.602690634335    0.943493292969   -0.176567582704
