10

 H   -5.947401224807   -2.539389638311   -1.089709604302
 H   -5.045925224807   -1.337175638311   -2.064956604302
 H   -4.144449224807   -2.539389638311   -1.089709604302
 C   -5.045925224807   -1.908540638311   -1.125237604302
 S   -5.045925224807   -0.710665638311    0.247300395698
 C   -5.045925224807   -1.908540638311    1.619838395698
 H   -4.144449224807   -2.539389638311    1.584310395698
 H   -5.045925224807   -1.337175638311    2.559557395698
 H   -5.947401224807   -2.539389638311    1.584310395698
RB    3.685511108687    0.959333773061   -0.180626607594
