10

 H   -6.060792802893   -2.561077234879   -1.084152292039
 H   -5.159316802893   -1.358863234879   -2.059399292039
 H   -4.257840802893   -2.561077234879   -1.084152292039
 C   -5.159316802893   -1.930228234879   -1.119680292039
 S   -5.159316802893   -0.732353234879    0.252857707961
 C   -5.159316802893   -1.930228234879    1.625395707961
 H   -4.257840802893   -2.561077234879    1.589867707961
 H   -5.159316802893   -1.358863234879    2.565114707961
 H   -6.060792802893   -2.561077234879    1.589867707961
RB    3.768331583040    0.975174253153   -0.184685632483
