10

 H   -6.457663326192   -2.636983822866   -1.064701699119
 H   -5.556187326192   -1.434769822866   -2.039948699119
 H   -4.654711326192   -2.636983822866   -1.064701699119
 C   -5.556187326192   -2.006134822866   -1.100229699119
 S   -5.556187326192   -0.808259822866    0.272308300881
 C   -5.556187326192   -2.006134822866    1.644846300881
 H   -4.654711326192   -2.636983822866    1.609318300881
 H   -5.556187326192   -1.434769822866    2.584565300881
 H   -6.457663326192   -2.636983822866    1.609318300881
RB    4.058203243274    1.030615933477   -0.198892219597
