9

 C   -1.292658173114   -0.868195501595   -0.136860521470
 H   -2.271585173114   -0.376407501595   -0.136860521470
 H   -1.185512173114   -1.508004501595    0.751411478530
 H   -1.185512173114   -1.508004501595   -1.025132521470
 C   -0.208031173114    0.177388498405   -0.136860521470
 O   -0.369135173114    1.386939498405   -0.136860521470
 O    1.034254826886   -0.399619501595   -0.136860521470
 H    1.668790826886    0.338943498405   -0.136860521470
LI    1.477597480406   -0.630707855523    1.170826545166
