9

 C   -1.302600936339   -0.863012926066   -0.166187776071
 H   -2.281527936339   -0.371224926066   -0.166187776071
 H   -1.195454936339   -1.502821926066    0.722084223929
 H   -1.195454936339   -1.502821926066   -1.054459776071
 C   -0.217973936339    0.182571073934   -0.166187776071
 O   -0.379077936339    1.392122073934   -0.166187776071
 O    1.024312063661   -0.394436926066   -0.166187776071
 H    1.658848063661    0.344126073934   -0.166187776071
LI    1.562656714364   -0.675044212979    1.421717947702
