9

 C   -1.577684052213   -0.719628336435   -0.977575153359
 H   -2.556611052213   -0.227840336435   -0.977575153359
 H   -1.470538052213   -1.359437336435   -0.089303153359
 H   -1.470538052213   -1.359437336435   -1.865847153359
 C   -0.493057052213    0.325955663565   -0.977575153359
 O   -0.654161052213    1.535506663565   -0.977575153359
 O    0.749228947787   -0.251052336435   -0.977575153359
 H    1.383764947787    0.487510663565   -0.977575153359
LI    3.915962187215   -1.901683435924    8.363046751187
