9

 C   -1.319172208379   -0.854375300184   -0.215066533739
 H   -2.298099208379   -0.362587300184   -0.215066533739
 H   -1.212026208379   -1.494184300184    0.673205466261
 H   -1.212026208379   -1.494184300184   -1.103338533739
 C   -0.234545208379    0.191208699816   -0.215066533739
 O   -0.395649208379    1.400759699816   -0.215066533739
 O    1.007740791621   -0.385799300184   -0.215066533739
 H    1.642276791621    0.352763699816   -0.215066533739
LI    1.704422104295   -0.748938142072    1.839870285261
