9

 C   -1.322486462787   -0.852647775008   -0.224842285273
 H   -2.301413462787   -0.360859775008   -0.224842285273
 H   -1.215340462787   -1.492456775008    0.663429714727
 H   -1.215340462787   -1.492456775008   -1.113114285273
 C   -0.237859462787    0.192936224992   -0.224842285273
 O   -0.398963462787    1.402487224992   -0.224842285273
 O    1.004426537213   -0.384071775008   -0.224842285273
 H    1.638962537213    0.354491224992   -0.224842285273
LI    1.732775182281   -0.763716927891    1.923500752773
