9

 C   -1.335743480420   -0.845737674303   -0.263945291407
 H   -2.314670480420   -0.353949674303   -0.263945291407
 H   -1.228597480420   -1.485546674303    0.624326708593
 H   -1.228597480420   -1.485546674303   -1.152217291407
 C   -0.251116480420    0.199846325697   -0.263945291407
 O   -0.412220480420    1.409397325697   -0.263945291407
 O    0.991169519580   -0.377161674303   -0.263945291407
 H    1.625705519580    0.361401325697   -0.263945291407
LI    1.846187494226   -0.822832071165    2.258022622821
