9

 C   -1.355629006869   -0.835372523245   -0.322599800609
 H   -2.334556006869   -0.343584523245   -0.322599800609
 H   -1.248483006869   -1.475181523245    0.565672199391
 H   -1.248483006869   -1.475181523245   -1.210871800609
 C   -0.271002006869    0.210211476755   -0.322599800609
 O   -0.432106006869    1.419762476755   -0.322599800609
 O    0.971283993131   -0.366796523245   -0.322599800609
 H    1.605819993131    0.371766476755   -0.322599800609
LI    2.016305962143   -0.911504786077    2.759805427892
