9

 C   -1.368886024501   -0.828462422540   -0.361702806743
 H   -2.347813024501   -0.336674422540   -0.361702806743
 H   -1.261740024501   -1.468271422540    0.526569193257
 H   -1.261740024501   -1.468271422540   -1.249974806743
 C   -0.284259024501    0.217121577460   -0.361702806743
 O   -0.445363024501    1.426672577460   -0.361702806743
 O    0.958026975499   -0.359886422540   -0.361702806743
 H    1.592562975499    0.378676577460   -0.361702806743
LI    2.129718274087   -0.970619929351    3.094327297939
