9

 C   -1.385457296542   -0.819824796659   -0.410581564411
 H   -2.364384296542   -0.328036796659   -0.410581564411
 H   -1.278311296542   -1.459633796659    0.477690435589
 H   -1.278311296542   -1.459633796659   -1.298853564411
 C   -0.300830296542    0.225759203341   -0.410581564411
 O   -0.461934296542    1.435310203341   -0.410581564411
 O    0.941455703458   -0.351248796659   -0.410581564411
 H    1.575991703458    0.387314203341   -0.410581564411
LI    2.271483664018   -1.044513858444    3.512479635499
