9

 C   -1.398714314174   -0.812914695954   -0.449684570545
 H   -2.377641314174   -0.321126695954   -0.449684570545
 H   -1.291568314174   -1.452723695954    0.438587429455
 H   -1.291568314174   -1.452723695954   -1.337956570545
 C   -0.314087314174    0.232669304046   -0.449684570545
 O   -0.475191314174    1.442220304046   -0.449684570545
 O    0.928198685826   -0.344338695954   -0.449684570545
 H    1.562734685826    0.394224304046   -0.449684570545
LI    2.384895975963   -1.103629001719    3.847001505546
