9

 C   -1.411971331807   -0.806004595249   -0.488787576680
 H   -2.390898331807   -0.314216595249   -0.488787576680
 H   -1.304825331807   -1.445813595249    0.399484423320
 H   -1.304825331807   -1.445813595249   -1.377059576680
 C   -0.327344331807    0.239579404751   -0.488787576680
 O   -0.488448331807    1.449130404751   -0.488787576680
 O    0.914941668193   -0.337428595249   -0.488787576680
 H    1.549477668193    0.401134404751   -0.488787576680
LI    2.498308287907   -1.162744144993    4.181523375594
