9

 C   -1.415285586215   -0.804277070072   -0.498563328213
 H   -2.394212586215   -0.312489070072   -0.498563328213
 H   -1.308139586215   -1.444086070072    0.389708671787
 H   -1.308139586215   -1.444086070072   -1.386835328213
 C   -0.330658586215    0.241306929928   -0.498563328213
 O   -0.491762586215    1.450857929928   -0.498563328213
 O    0.911627413785   -0.335701070072   -0.498563328213
 H    1.546163413785    0.402861929928   -0.498563328213
LI    2.526661365894   -1.177522930812    4.265153843106
