9

 C   -1.418599840623   -0.802549544896   -0.508339079747
 H   -2.397526840623   -0.310761544896   -0.508339079747
 H   -1.311453840623   -1.442358544896    0.379932920253
 H   -1.311453840623   -1.442358544896   -1.396611079747
 C   -0.333972840623    0.243034455104   -0.508339079747
 O   -0.495076840623    1.452585455104   -0.508339079747
 O    0.908313159377   -0.333973544896   -0.508339079747
 H    1.542849159377    0.404589455104   -0.508339079747
LI    2.555014443880   -1.192301716630    4.348784310617
