9

 C   -1.421914095031   -0.800822019720   -0.518114831280
 H   -2.400841095031   -0.309034019720   -0.518114831280
 H   -1.314768095031   -1.440631019720    0.370157168720
 H   -1.314768095031   -1.440631019720   -1.406386831280
 C   -0.337287095031    0.244761980280   -0.518114831280
 O   -0.498391095031    1.454312980280   -0.518114831280
 O    0.904998904969   -0.332246019720   -0.518114831280
 H    1.539534904969    0.406316980280   -0.518114831280
LI    2.583367521866   -1.207080502449    4.432414778129
