9

 C   -1.428542603848   -0.797366969367   -0.537666334348
 H   -2.407469603848   -0.305578969367   -0.537666334348
 H   -1.321396603848   -1.437175969367    0.350605665652
 H   -1.321396603848   -1.437175969367   -1.425938334348
 C   -0.343915603848    0.248217030633   -0.537666334348
 O   -0.505019603848    1.457768030633   -0.537666334348
 O    0.898370396152   -0.328790969367   -0.537666334348
 H    1.532906396152    0.409772030633   -0.537666334348
LI    2.640073677838   -1.236638074086    4.599675713153
