9

 C   -1.431856858256   -0.795639444191   -0.547442085881
 H   -2.410783858256   -0.303851444191   -0.547442085881
 H   -1.324710858256   -1.435448444191    0.340829914119
 H   -1.324710858256   -1.435448444191   -1.435714085881
 C   -0.347229858256    0.249944555809   -0.547442085881
 O   -0.508333858256    1.459495555809   -0.547442085881
 O    0.895056141744   -0.327063444191   -0.547442085881
 H    1.529592141744    0.411499555809   -0.547442085881
LI    2.668426755824   -1.251416859905    4.683306180665
