9

 C   -1.435171112664   -0.793911919015   -0.557217837415
 H   -2.414098112664   -0.302123919015   -0.557217837415
 H   -1.328025112664   -1.433720919015    0.331054162585
 H   -1.328025112664   -1.433720919015   -1.445489837415
 C   -0.350544112664    0.251672080985   -0.557217837415
 O   -0.511648112664    1.461223080985   -0.557217837415
 O    0.891741887336   -0.325335919015   -0.557217837415
 H    1.526277887336    0.413227080985   -0.557217837415
LI    2.696779833810   -1.266195645723    4.766936648177
