9

 C   -1.438485367072   -0.792184393838   -0.566993588948
 H   -2.417412367072   -0.300396393838   -0.566993588948
 H   -1.331339367072   -1.431993393838    0.321278411052
 H   -1.331339367072   -1.431993393838   -1.455265588948
 C   -0.353858367072    0.253399606162   -0.566993588948
 O   -0.514962367072    1.462950606162   -0.566993588948
 O    0.888427632928   -0.323608393838   -0.566993588948
 H    1.522963632928    0.414954606162   -0.566993588948
LI    2.725132911797   -1.280974431542    4.850567115689
