9

 C   -1.445113875888   -0.788729343486   -0.586545092016
 H   -2.424040875888   -0.296941343486   -0.586545092016
 H   -1.337967875888   -1.428538343486    0.301726907984
 H   -1.337967875888   -1.428538343486   -1.474817092016
 C   -0.360486875888    0.256854656514   -0.586545092016
 O   -0.521590875888    1.466405656514   -0.586545092016
 O    0.881799124112   -0.320153343486   -0.586545092016
 H    1.516335124112    0.418409656514   -0.586545092016
LI    2.781839067769   -1.310532003179    5.017828050712
