9

 C   -1.464999402337   -0.778364192428   -0.645199601217
 H   -2.443926402337   -0.286576192428   -0.645199601217
 H   -1.357853402337   -1.418173192428    0.243072398783
 H   -1.357853402337   -1.418173192428   -1.533471601217
 C   -0.380372402337    0.267219807572   -0.645199601217
 O   -0.541476402337    1.476770807572   -0.645199601217
 O    0.861913597663   -0.309788192428   -0.645199601217
 H    1.496449597663    0.428774807572   -0.645199601217
LI    2.951957535686   -1.399204718091    5.519610855784
