9

 C   -1.471627911153   -0.774909142076   -0.664751104284
 H   -2.450554911153   -0.283121142076   -0.664751104284
 H   -1.364481911153   -1.414718142076    0.223520895716
 H   -1.364481911153   -1.414718142076   -1.553023104284
 C   -0.387000911153    0.270674857924   -0.664751104284
 O   -0.548104911153    1.480225857924   -0.664751104284
 O    0.855285088847   -0.306333142076   -0.664751104284
 H    1.489821088847    0.432229857924   -0.664751104284
LI    3.008663691658   -1.428762289728    5.686871790807
