9

 C   -1.474942165561   -0.773181616899   -0.674526855818
 H   -2.453869165561   -0.281393616899   -0.674526855818
 H   -1.367796165561   -1.412990616899    0.213745144182
 H   -1.367796165561   -1.412990616899   -1.562798855818
 C   -0.390315165561    0.272402383101   -0.674526855818
 O   -0.551419165561    1.481953383101   -0.674526855818
 O    0.851970834439   -0.304605616899   -0.674526855818
 H    1.486506834439    0.433957383101   -0.674526855818
LI    3.037016769644   -1.443541075547    5.770502258319
