9

 C   -1.488199183194   -0.766271516194   -0.713629861952
 H   -2.467126183194   -0.274483516194   -0.713629861952
 H   -1.381053183194   -1.406080516194    0.174642138048
 H   -1.381053183194   -1.406080516194   -1.601901861952
 C   -0.403572183194    0.279312483806   -0.713629861952
 O   -0.564676183194    1.488863483806   -0.713629861952
 O    0.838713816806   -0.297695516194   -0.713629861952
 H    1.473249816806    0.440867483806   -0.713629861952
LI    3.150429081589   -1.502656218821    6.105024128367
