9

 C   -1.491513437602   -0.764543991018   -0.723405613486
 H   -2.470440437602   -0.272755991018   -0.723405613486
 H   -1.384367437602   -1.404352991018    0.164866386514
 H   -1.384367437602   -1.404352991018   -1.611677613486
 C   -0.406886437602    0.281040008982   -0.723405613486
 O   -0.567990437602    1.490591008982   -0.723405613486
 O    0.835399562398   -0.295967991018   -0.723405613486
 H    1.469935562398    0.442595008982   -0.723405613486
LI    3.178782159575   -1.517435004640    6.188654595879
