9

 C   -1.494827692010   -0.762816465842   -0.733181365019
 H   -2.473754692010   -0.271028465842   -0.733181365019
 H   -1.387681692010   -1.402625465842    0.155090634981
 H   -1.387681692010   -1.402625465842   -1.621453365019
 C   -0.410200692010    0.282767534158   -0.733181365019
 O   -0.571304692010    1.492318534158   -0.733181365019
 O    0.832085307990   -0.294240465842   -0.733181365019
 H    1.466621307990    0.444322534158   -0.733181365019
LI    3.207135237561   -1.532213790458    6.272285063391
