9

 C   -1.498141946418   -0.761088940665   -0.742957116553
 H   -2.477068946418   -0.269300940665   -0.742957116553
 H   -1.390995946418   -1.400897940665    0.145314883447
 H   -1.390995946418   -1.400897940665   -1.631229116553
 C   -0.413514946418    0.284495059335   -0.742957116553
 O   -0.574618946418    1.494046059335   -0.742957116553
 O    0.828771053582   -0.292512940665   -0.742957116553
 H    1.463307053582    0.446050059335   -0.742957116553
LI    3.235488315547   -1.546992576277    6.355915530902
