9

 C   -1.508084709643   -0.755906365136   -0.772284371154
 H   -2.487011709643   -0.264118365136   -0.772284371154
 H   -1.400938709643   -1.395715365136    0.115987628846
 H   -1.400938709643   -1.395715365136   -1.660556371154
 C   -0.423457709643    0.289677634864   -0.772284371154
 O   -0.584561709643    1.499228634864   -0.772284371154
 O    0.818828290357   -0.287330365136   -0.772284371154
 H    1.453364290357    0.451232634864   -0.772284371154
LI    3.320547549506   -1.591328933733    6.606806933438
