9

 C   -1.518027472867   -0.750723789608   -0.801611625755
 H   -2.496954472867   -0.258935789608   -0.801611625755
 H   -1.410881472867   -1.390532789608    0.086660374245
 H   -1.410881472867   -1.390532789608   -1.689883625755
 C   -0.433400472867    0.294860210392   -0.801611625755
 O   -0.594504472867    1.504411210392   -0.801611625755
 O    0.808885527133   -0.282147789608   -0.801611625755
 H    1.443421527133    0.456415210392   -0.801611625755
LI    3.405606783464   -1.635665291189    6.857698335974
