9

 C   -1.521341727275   -0.748996264431   -0.811387377288
 H   -2.500268727275   -0.257208264431   -0.811387377288
 H   -1.414195727275   -1.388805264431    0.076884622712
 H   -1.414195727275   -1.388805264431   -1.699659377288
 C   -0.436714727275    0.296587735569   -0.811387377288
 O   -0.597818727275    1.506138735569   -0.811387377288
 O    0.805571272725   -0.280420264431   -0.811387377288
 H    1.440107272725    0.458142735569   -0.811387377288
LI    3.433959861451   -1.650444077007    6.941328803486
