9

 C   -1.524655981683   -0.747268739255   -0.821163128822
 H   -2.503582981683   -0.255480739255   -0.821163128822
 H   -1.417509981683   -1.387077739255    0.067108871178
 H   -1.417509981683   -1.387077739255   -1.709435128822
 C   -0.440028981683    0.298315260745   -0.821163128822
 O   -0.601132981683    1.507866260745   -0.821163128822
 O    0.802257018317   -0.278692739255   -0.821163128822
 H    1.436793018317    0.459870260745   -0.821163128822
LI    3.462312939437   -1.665222862826    7.024959270997
