9

 C   -1.531284490500   -0.743813688902   -0.840714631889
 H   -2.510211490500   -0.252025688902   -0.840714631889
 H   -1.424138490500   -1.383622688902    0.047557368111
 H   -1.424138490500   -1.383622688902   -1.728986631889
 C   -0.446657490500    0.301770311098   -0.840714631889
 O   -0.607761490500    1.511321311098   -0.840714631889
 O    0.795628509500   -0.275237688902   -0.840714631889
 H    1.430164509500    0.463325311098   -0.840714631889
LI    3.519019095409   -1.694780434463    7.192220206021
