9

 C   -1.534598744908   -0.742086163726   -0.850490383423
 H   -2.513525744908   -0.250298163726   -0.850490383423
 H   -1.427452744908   -1.381895163726    0.037781616577
 H   -1.427452744908   -1.381895163726   -1.738762383423
 C   -0.449971744908    0.303497836274   -0.850490383423
 O   -0.611075744908    1.513048836274   -0.850490383423
 O    0.792314255092   -0.273510163726   -0.850490383423
 H    1.426850255092    0.465052836274   -0.850490383423
LI    3.547372173395   -1.709559220282    7.275850673533
