9

 C   -1.544541508132   -0.736903588197   -0.879817638023
 H   -2.523468508132   -0.245115588197   -0.879817638023
 H   -1.437395508132   -1.376712588197    0.008454361977
 H   -1.437395508132   -1.376712588197   -1.768089638023
 C   -0.459914508132    0.308680411803   -0.879817638023
 O   -0.621018508132    1.518231411803   -0.879817638023
 O    0.782371491868   -0.268327588197   -0.879817638023
 H    1.416907491868    0.470235411803   -0.879817638023
LI    3.632431407354   -1.753895577737    7.526742076069
