9

 C   -1.547855762540   -0.735176063021   -0.889593389557
 H   -2.526782762540   -0.243388063021   -0.889593389557
 H   -1.440709762540   -1.374985063021   -0.001321389557
 H   -1.440709762540   -1.374985063021   -1.777865389557
 C   -0.463228762540    0.310407936979   -0.889593389557
 O   -0.624332762540    1.519958936979   -0.889593389557
 O    0.779057237460   -0.266600063021   -0.889593389557
 H    1.413593237460    0.471962936979   -0.889593389557
LI    3.660784485340   -1.768674363556    7.610372543581
