9

 C   -1.551170016948   -0.733448537845   -0.899369141091
 H   -2.530097016948   -0.241660537845   -0.899369141091
 H   -1.444024016948   -1.373257537845   -0.011097141091
 H   -1.444024016948   -1.373257537845   -1.787641141091
 C   -0.466543016948    0.312135462155   -0.899369141091
 O   -0.627647016948    1.521686462155   -0.899369141091
 O    0.775742983052   -0.264872537845   -0.899369141091
 H    1.410278983052    0.473690462155   -0.899369141091
LI    3.689137563326   -1.783453149375    7.694003011092
