9

 C   -1.557798525765   -0.729993487492   -0.918920644158
 H   -2.536725525765   -0.238205487492   -0.918920644158
 H   -1.450652525765   -1.369802487492   -0.030648644158
 H   -1.450652525765   -1.369802487492   -1.807192644158
 C   -0.473171525765    0.315590512508   -0.918920644158
 O   -0.634275525765    1.525141512508   -0.918920644158
 O    0.769114474235   -0.261417487492   -0.918920644158
 H    1.403650474235    0.477145512508   -0.918920644158
LI    3.745843719298   -1.813010721012    7.861263946116
