9

 C   -1.561112780173   -0.728265962316   -0.928696395691
 H   -2.540039780173   -0.236477962316   -0.928696395691
 H   -1.453966780173   -1.368074962316   -0.040424395691
 H   -1.453966780173   -1.368074962316   -1.816968395691
 C   -0.476485780173    0.317318037684   -0.928696395691
 O   -0.637589780173    1.526869037684   -0.928696395691
 O    0.765800219827   -0.259689962316   -0.928696395691
 H    1.400336219827    0.478873037684   -0.928696395691
LI    3.774196797284   -1.827789506831    7.944894413628
