9

 C   -1.564427034581   -0.726538437140   -0.938472147225
 H   -2.543354034581   -0.234750437140   -0.938472147225
 H   -1.457281034581   -1.366347437140   -0.050200147225
 H   -1.457281034581   -1.366347437140   -1.826744147225
 C   -0.479800034581    0.319045562860   -0.938472147225
 O   -0.640904034581    1.528596562860   -0.938472147225
 O    0.762485965419   -0.257962437140   -0.938472147225
 H    1.397021965419    0.480600562860   -0.938472147225
LI    3.802549875271   -1.842568292649    8.028524881140
