9

 C   -1.567741288989   -0.724810911963   -0.948247898758
 H   -2.546668288989   -0.233022911963   -0.948247898758
 H   -1.460595288989   -1.364619911963   -0.059975898758
 H   -1.460595288989   -1.364619911963   -1.836519898758
 C   -0.483114288989    0.320773088037   -0.948247898758
 O   -0.644218288989    1.530324088037   -0.948247898758
 O    0.759171711011   -0.256234911963   -0.948247898758
 H    1.393707711011    0.482328088037   -0.948247898758
LI    3.830902953257   -1.857347078468    8.112155348652
