17

 N   -1.748020653102   -1.477696299564    0.049648872330
 C   -0.537832586258   -0.822490095888    0.053610496298
 N    0.695579828045   -1.421167790350    0.065648781203
 C    1.666003028101   -0.530991648739    0.053776324230
 N    1.462926190688    0.830646484775    0.046941163888
 H    2.266753315939    1.450607024530   -0.035046858534
 N    2.991457782338   -0.949666370419   -0.024570979005
 H    3.645993987670   -0.417863146019    0.543069797725
 H    3.070262869729   -1.950366514354    0.137012358984
 C    0.203652448371    1.516680188306    0.059894950565
 O    0.176072079266    2.744853273083    0.055806822137
 C   -0.869132677605    0.542986799032    0.066096148505
 N   -2.240205979374    0.729317844345    0.066020963789
 C   -2.733729473885   -0.509285169700    0.055690864124
 H   -3.791227387153   -0.763431791532    0.052744219698
 H   -1.873117649633   -2.484279384796    0.040989321299
LI    0.687526447269   -1.428392407447   -1.134302446125
