17

 N   -1.747990864513   -1.477669576483    0.054087362784
 C   -0.537802797669   -0.822463372807    0.058048986752
 N    0.695609616634   -1.421141067269    0.070087271657
 C    1.666032816690   -0.530964925658    0.058214814684
 N    1.462955979277    0.830673207856    0.051379654342
 H    2.266783104528    1.450633747611   -0.030608368080
 N    2.991487570927   -0.949639647338   -0.020132488551
 H    3.646023776259   -0.417836422938    0.547508288179
 H    3.070292658318   -1.950339791273    0.141450849438
 C    0.203682236960    1.516706911387    0.064333441019
 O    0.176101867855    2.744879996164    0.060245312591
 C   -0.869102889016    0.543013522113    0.070534638959
 N   -2.240176190785    0.729344567426    0.070459454243
 C   -2.733699685296   -0.509258446619    0.060129354578
 H   -3.791197598564   -0.763405068451    0.057182710152
 H   -1.873087861044   -2.484252661715    0.045427811753
LI    0.686885120793   -1.428967735791   -1.229859891281
