17

 N   -1.747961075924   -1.477642853402    0.058525853239
 C   -0.537773009080   -0.822436649726    0.062487477207
 N    0.695639405223   -1.421114344188    0.074525762112
 C    1.666062605279   -0.530938202577    0.062653305139
 N    1.462985767866    0.830699930937    0.055818144797
 H    2.266812893117    1.450660470692   -0.026169877625
 N    2.991517359516   -0.949612924257   -0.015693998096
 H    3.646053564848   -0.417809699857    0.551946778634
 H    3.070322446907   -1.950313068192    0.145889339893
 C    0.203712025549    1.516733634468    0.068771931474
 O    0.176131656444    2.744906719245    0.064683803046
 C   -0.869073100427    0.543040245194    0.074973129414
 N   -2.240146402196    0.729371290507    0.074897944698
 C   -2.733669896707   -0.509231723538    0.064567845033
 H   -3.791167809975   -0.763378345370    0.061621200607
 H   -1.873058072455   -2.484225938634    0.049866302208
LI    0.686243794318   -1.429543064134   -1.325417336437
