17

 N   -1.747663190036   -1.477375622590    0.102910757787
 C   -0.537475123192   -0.822169418914    0.106872381755
 N    0.695937291111   -1.420847113376    0.118910666660
 C    1.666360491167   -0.530670971765    0.107038209687
 N    1.463283653754    0.830967161749    0.100203049345
 H    2.267110779005    1.450927701504    0.018215026923
 N    2.991815245404   -0.949345693445    0.028690906452
 H    3.646351450736   -0.417542469045    0.596331683182
 H    3.070620332795   -1.950045837380    0.190274244441
 C    0.204009911437    1.517000865280    0.113156836022
 O    0.176429542332    2.745173950057    0.109068707594
 C   -0.868775214539    0.543307476006    0.119358033962
 N   -2.239848516308    0.729638521319    0.119282849246
 C   -2.733372010819   -0.508964492726    0.108952749581
 H   -3.790869924087   -0.763111114558    0.106006105155
 H   -1.872760186567   -2.483958707822    0.094251206756
LI    0.679830529559   -1.435296347571   -2.280991787996
