17

 N   -1.747603612858   -1.477322176428    0.111787738696
 C   -0.537415546014   -0.822115972752    0.115749362664
 N    0.695996868289   -1.420793667214    0.127787647569
 C    1.666420068345   -0.530617525603    0.115915190596
 N    1.463343230932    0.831020607911    0.109080030254
 H    2.267170356183    1.450981147666    0.027092007832
 N    2.991874822582   -0.949292247283    0.037567887361
 H    3.646411027914   -0.417489022883    0.605208664091
 H    3.070679909973   -1.949992391218    0.199151225350
 C    0.204069488615    1.517054311442    0.122033816931
 O    0.176489119510    2.745227396219    0.117945688503
 C   -0.868715637361    0.543360922168    0.128235014871
 N   -2.239788939130    0.729691967481    0.128159830155
 C   -2.733312433641   -0.508911046564    0.117829730490
 H   -3.790810346909   -0.763057668396    0.114883086064
 H   -1.872700609389   -2.483905261660    0.103128187665
LI    0.678547876607   -1.436447004258   -2.472106678308
