17

 N   -1.747484458503   -1.477215284103    0.129541700515
 C   -0.537296391659   -0.822009080427    0.133503324483
 N    0.696116022644   -1.420686774889    0.145541609388
 C    1.666539222700   -0.530510633278    0.133669152415
 N    1.463462385287    0.831127500236    0.126833992073
 H    2.267289510538    1.451088039991    0.044845969651
 N    2.991993976937   -0.949185354958    0.055321849180
 H    3.646530182269   -0.417382130558    0.622962625910
 H    3.070799064328   -1.949885498893    0.216905187169
 C    0.204188642970    1.517161203767    0.139787778750
 O    0.176608273865    2.745334288544    0.135699650322
 C   -0.868596483006    0.543467814493    0.145988976690
 N   -2.239669784775    0.729798859806    0.145913791974
 C   -2.733193279286   -0.508804154239    0.135583692309
 H   -3.790691192554   -0.762950776071    0.132637047883
 H   -1.872581455034   -2.483798369335    0.120882149484
LI    0.675982570704   -1.438748317633   -2.854336458932
