17

 N   -1.747454669914   -1.477188561022    0.133980190970
 C   -0.537266603070   -0.821982357346    0.137941814938
 N    0.696145811233   -1.420660051808    0.149980099843
 C    1.666569011289   -0.530483910197    0.138107642870
 N    1.463492173876    0.831154223317    0.131272482528
 H    2.267319299127    1.451114763072    0.049284460106
 N    2.992023765526   -0.949158631877    0.059760339635
 H    3.646559970858   -0.417355407477    0.627401116365
 H    3.070828852917   -1.949858775812    0.221343677624
 C    0.204218431559    1.517187926848    0.144226269205
 O    0.176638062454    2.745361011625    0.140138140777
 C   -0.868566694417    0.543494537574    0.150427467145
 N   -2.239639996186    0.729825582887    0.150352282429
 C   -2.733163490697   -0.508777431158    0.140022182764
 H   -3.790661403965   -0.762924052990    0.137075538338
 H   -1.872551666445   -2.483771646254    0.125320639939
LI    0.675341244228   -1.439323645976   -2.949893904088
