17

 N   -1.747424881326   -1.477161837941    0.138418681425
 C   -0.537236814482   -0.821955634265    0.142380305393
 N    0.696175599821   -1.420633328727    0.154418590298
 C    1.666598799877   -0.530457187116    0.142546133325
 N    1.463521962464    0.831180946398    0.135710972983
 H    2.267349087715    1.451141486153    0.053722950561
 N    2.992053554114   -0.949131908796    0.064198830090
 H    3.646589759446   -0.417328684396    0.631839606820
 H    3.070858641505   -1.949832052731    0.225782168079
 C    0.204248220147    1.517214649929    0.148664759660
 O    0.176667851042    2.745387734706    0.144576631232
 C   -0.868536905829    0.543521260655    0.154865957600
 N   -2.239610207598    0.729852305968    0.154790772884
 C   -2.733133702109   -0.508750708077    0.144460673219
 H   -3.790631615377   -0.762897329909    0.141514028793
 H   -1.872521877857   -2.483744923173    0.129759130394
LI    0.674699917752   -1.439898974320   -3.045451349244
