17

 N   -1.747275938382   -1.477028222535    0.160611133698
 C   -0.537087871538   -0.821822018859    0.164572757666
 N    0.696324542765   -1.420499713321    0.176611042571
 C    1.666747742821   -0.530323571710    0.164738585598
 N    1.463670905408    0.831314561804    0.157903425256
 H    2.267498030659    1.451275101559    0.075915402834
 N    2.992202497058   -0.948998293390    0.086391282363
 H    3.646738702390   -0.417195068990    0.654032059093
 H    3.071007584449   -1.949698437325    0.247974620352
 C    0.204397163091    1.517348265335    0.170857211933
 O    0.176816793986    2.745521350112    0.166769083505
 C   -0.868387962885    0.543654876061    0.177058409873
 N   -2.239461264654    0.729985921374    0.176983225157
 C   -2.732984759165   -0.508617092671    0.166653125492
 H   -3.790482672433   -0.762763714503    0.163706481066
 H   -1.872372934913   -2.483611307767    0.151951582667
LI    0.671493285373   -1.442775616038   -3.523238575023
