17

 N   -1.747216361204   -1.476974776373    0.169488114608
 C   -0.537028294360   -0.821768572697    0.173449738576
 N    0.696384119943   -1.420446267159    0.185488023481
 C    1.666807319999   -0.530270125548    0.173615566508
 N    1.463730482586    0.831368007966    0.166780406166
 H    2.267557607837    1.451328547721    0.084792383744
 N    2.992262074236   -0.948944847228    0.095268263273
 H    3.646798279568   -0.417141622828    0.662909040003
 H    3.071067161627   -1.949644991163    0.256851601262
 C    0.204456740269    1.517401711497    0.179734192843
 O    0.176876371164    2.745574796274    0.175646064415
 C   -0.868328385707    0.543708322223    0.185935390783
 N   -2.239401687476    0.730039367536    0.185860206067
 C   -2.732925181987   -0.508563646509    0.175530106402
 H   -3.790423095255   -0.762710268341    0.172583461976
 H   -1.872313357735   -2.483557861605    0.160828563577
LI    0.670210632421   -1.443926272725   -3.714353465335
