17

 N   -1.747186572615   -1.476948053292    0.173926605063
 C   -0.536998505771   -0.821741849616    0.177888229031
 N    0.696413908532   -1.420419544078    0.189926513936
 C    1.666837108588   -0.530243402467    0.178054056963
 N    1.463760271175    0.831394731047    0.171218896621
 H    2.267587396426    1.451355270802    0.089230874199
 N    2.992291862825   -0.948918124147    0.099706753728
 H    3.646828068157   -0.417114899747    0.667347530458
 H    3.071096950216   -1.949618268082    0.261290091717
 C    0.204486528858    1.517428434578    0.184172683298
 O    0.176906159753    2.745601519355    0.180084554870
 C   -0.868298597118    0.543735045304    0.190373881238
 N   -2.239371898887    0.730066090617    0.190298696522
 C   -2.732895393398   -0.508536923428    0.179968596857
 H   -3.790393306666   -0.762683545260    0.177021952431
 H   -1.872283569146   -2.483531138524    0.165267054032
LI    0.669569305946   -1.444501601069   -3.809910910491
