17

 N   -1.747156784026   -1.476921330210    0.178365095517
 C   -0.536968717182   -0.821715126534    0.182326719485
 N    0.696443697121   -1.420392820996    0.194365004390
 C    1.666866897177   -0.530216679385    0.182492547417
 N    1.463790059764    0.831421454129    0.175657387075
 H    2.267617185015    1.451381993884    0.093669364653
 N    2.992321651414   -0.948891401065    0.104145244182
 H    3.646857856746   -0.417088176665    0.671786020912
 H    3.071126738805   -1.949591545000    0.265728582171
 C    0.204516317447    1.517455157660    0.188611173752
 O    0.176935948342    2.745628242437    0.184523045324
 C   -0.868268808529    0.543761768386    0.194812371692
 N   -2.239342110298    0.730092813699    0.194737186976
 C   -2.732865604809   -0.508510200346    0.184407087311
 H   -3.790363518077   -0.762656822178    0.181460442885
 H   -1.872253780557   -2.483504415442    0.169705544486
LI    0.668927979470   -1.445076929412   -3.905468355647
