17

 N   -1.747126995438   -1.476894607129    0.182803585972
 C   -0.536938928594   -0.821688403453    0.186765209940
 N    0.696473485709   -1.420366097915    0.198803494845
 C    1.666896685765   -0.530189956304    0.186931037872
 N    1.463819848352    0.831448177210    0.180095877530
 H    2.267646973603    1.451408716965    0.098107855108
 N    2.992351440002   -0.948864677984    0.108583734637
 H    3.646887645334   -0.417061453584    0.676224511367
 H    3.071156527393   -1.949564821919    0.270167072626
 C    0.204546106035    1.517481880741    0.193049664207
 O    0.176965736930    2.745654965518    0.188961535779
 C   -0.868239019941    0.543788491467    0.199250862147
 N   -2.239312321710    0.730119536780    0.199175677431
 C   -2.732835816221   -0.508483477265    0.188845577766
 H   -3.790333729489   -0.762630099097    0.185898933340
 H   -1.872223991969   -2.483477692361    0.174144034941
LI    0.668286652994   -1.445652257756   -4.001025800803
