17

 N   -1.747097206849   -1.476867884048    0.187242076427
 C   -0.536909140005   -0.821661680372    0.191203700395
 N    0.696503274298   -1.420339374834    0.203241985300
 C    1.666926474354   -0.530163233223    0.191369528327
 N    1.463849636941    0.831474900291    0.184534367985
 H    2.267676762192    1.451435440046    0.102546345563
 N    2.992381228591   -0.948837954903    0.113022225092
 H    3.646917433923   -0.417034730503    0.680663001822
 H    3.071186315982   -1.949538098838    0.274605563081
 C    0.204575894624    1.517508603822    0.197488154662
 O    0.176995525519    2.745681688599    0.193400026234
 C   -0.868209231352    0.543815214548    0.203689352602
 N   -2.239282533121    0.730146259861    0.203614167886
 C   -2.732806027632   -0.508456754184    0.193284068221
 H   -3.790303940900   -0.762603376016    0.190337423795
 H   -1.872194203380   -2.483450969280    0.178582525396
LI    0.667645326518   -1.446227586100   -4.096583245959
