17

 N   -1.747007841082   -1.476787714805    0.200557547791
 C   -0.536819774238   -0.821581511129    0.204519171759
 N    0.696592640065   -1.420259205591    0.216557456664
 C    1.667015840121   -0.530083063980    0.204684999691
 N    1.463939002708    0.831555069534    0.197849839349
 H    2.267766127959    1.451515609289    0.115861816927
 N    2.992470594358   -0.948757785660    0.126337696456
 H    3.647006799690   -0.416954561260    0.693978473186
 H    3.071275681749   -1.949457929595    0.287921034445
 C    0.204665260391    1.517588773065    0.210803626026
 O    0.177084891286    2.745761857842    0.206715497598
 C   -0.868119865585    0.543895383791    0.217004823966
 N   -2.239193167354    0.730226429104    0.216929639250
 C   -2.732716661865   -0.508376584941    0.206599539585
 H   -3.790214575133   -0.762523206773    0.203652895159
 H   -1.872104837613   -2.483370800037    0.191897996760
LI    0.665721347091   -1.447953571131   -4.383255581426
