17

 N   -1.746888686727   -1.476680822480    0.218311509610
 C   -0.536700619883   -0.821474618804    0.222273133578
 N    0.696711794420   -1.420152313266    0.234311418483
 C    1.667134994476   -0.529976171655    0.222438961510
 N    1.464058157063    0.831661961859    0.215603801168
 H    2.267885282314    1.451622501614    0.133615778746
 N    2.992589748713   -0.948650893335    0.144091658275
 H    3.647125954045   -0.416847668935    0.711732435005
 H    3.071394836104   -1.949351037270    0.305674996264
 C    0.204784414746    1.517695665390    0.228557587845
 O    0.177204045641    2.745868750167    0.224469459417
 C   -0.868000711230    0.544002276116    0.234758785785
 N   -2.239074012999    0.730333321429    0.234683601069
 C   -2.732597507510   -0.508269692616    0.224353501404
 H   -3.790095420778   -0.762416314448    0.221406856978
 H   -1.871985683258   -2.483263907712    0.209651958579
LI    0.663156041187   -1.450254884505   -4.765485362050
