17

 N   -1.746858898138   -1.476654099399    0.222750000065
 C   -0.536670831294   -0.821447895723    0.226711624033
 N    0.696741583009   -1.420125590185    0.238749908938
 C    1.667164783065   -0.529949448574    0.226877451965
 N    1.464087945652    0.831688684940    0.220042291623
 H    2.267915070903    1.451649224695    0.138054269201
 N    2.992619537302   -0.948624170254    0.148530148730
 H    3.647155742634   -0.416820945854    0.716170925460
 H    3.071424624693   -1.949324314189    0.310113486719
 C    0.204814203335    1.517722388471    0.232996078300
 O    0.177233834230    2.745895473248    0.228907949872
 C   -0.867970922641    0.544028999197    0.239197276240
 N   -2.239044224410    0.730360044510    0.239122091524
 C   -2.732567718921   -0.508242969535    0.228791991859
 H   -3.790065632189   -0.762389591367    0.225845347433
 H   -1.871955894669   -2.483237184631    0.214090449034
LI    0.662514714711   -1.450830212849   -4.861042807206
