17

 N   -1.746799320961   -1.476600653237    0.231626980975
 C   -0.536611254117   -0.821394449561    0.235588604943
 N    0.696801160186   -1.420072144023    0.247626889848
 C    1.667224360242   -0.529896002412    0.235754432875
 N    1.464147522829    0.831742131102    0.228919272533
 H    2.267974648080    1.451702670857    0.146931250111
 N    2.992679114479   -0.948570724092    0.157407129640
 H    3.647215319811   -0.416767499692    0.725047906370
 H    3.071484201870   -1.949270868027    0.318990467629
 C    0.204873780512    1.517775834633    0.241873059210
 O    0.177293411407    2.745948919410    0.237784930782
 C   -0.867911345464    0.544082445359    0.248074257150
 N   -2.238984647233    0.730413490672    0.247999072434
 C   -2.732508141744   -0.508189523373    0.237668972769
 H   -3.790006055012   -0.762336145205    0.234722328343
 H   -1.871896317492   -2.483183738469    0.222967429944
LI    0.661232061760   -1.451980869536   -5.052157697518
