17

 N   -1.746709955194   -1.476520483993    0.244942452339
 C   -0.536521888350   -0.821314280317    0.248904076307
 N    0.696890525953   -1.419991974779    0.260942361212
 C    1.667313726009   -0.529815833168    0.249069904239
 N    1.464236888596    0.831822300346    0.242234743897
 H    2.268064013847    1.451782840101    0.160246721475
 N    2.992768480246   -0.948490554848    0.170722601004
 H    3.647304685578   -0.416687330448    0.738363377734
 H    3.071573567637   -1.949190698783    0.332305938993
 C    0.204963146279    1.517856003877    0.255188530574
 O    0.177382777174    2.746029088654    0.251100402146
 C   -0.867821979697    0.544162614603    0.261389728514
 N   -2.238895281466    0.730493659916    0.261314543798
 C   -2.732418775977   -0.508109354129    0.250984444133
 H   -3.789916689245   -0.762255975961    0.248037799707
 H   -1.871806951725   -2.483103569225    0.236282901308
LI    0.659308082332   -1.453706854567   -5.338830032985
