17

 N   -1.746650378017   -1.476467037831    0.253819433248
 C   -0.536462311173   -0.821260834155    0.257781057216
 N    0.696950103130   -1.419938528617    0.269819342121
 C    1.667373303186   -0.529762387006    0.257946885148
 N    1.464296465773    0.831875746508    0.251111724806
 H    2.268123591024    1.451836286263    0.169123702384
 N    2.992828057423   -0.948437108686    0.179599581913
 H    3.647364262755   -0.416633884286    0.747240358643
 H    3.071633144814   -1.949137252621    0.341182919902
 C    0.205022723456    1.517909450039    0.264065511483
 O    0.177442354351    2.746082534816    0.259977383055
 C   -0.867762402520    0.544216060765    0.270266709423
 N   -2.238835704289    0.730547106078    0.270191524707
 C   -2.732359198800   -0.508055907967    0.259861425042
 H   -3.789857112068   -0.762202529799    0.256914780616
 H   -1.871747374548   -2.483050123063    0.245159882217
LI    0.658025429380   -1.454857511254   -5.529944923297
