17

 N   -1.746382280717   -1.476226530100    0.293765847341
 C   -0.536194213873   -0.821020326424    0.297727471309
 N    0.697218200430   -1.419698020886    0.309765756214
 C    1.667641400486   -0.529521879275    0.297893299241
 N    1.464564563073    0.832116254239    0.291058138899
 H    2.268391688324    1.452076793994    0.209070116477
 N    2.993096154723   -0.948196600955    0.219545996006
 H    3.647632360055   -0.416393376555    0.787186772736
 H    3.071901242114   -1.948896744890    0.381129333995
 C    0.205290820756    1.518149957770    0.304011925576
 O    0.177710451651    2.746323042547    0.299923797148
 C   -0.867494305220    0.544456568496    0.310213123516
 N   -2.238567606989    0.730787613809    0.310137938800
 C   -2.732091101500   -0.507815400236    0.299807839135
 H   -3.789589014768   -0.761962022068    0.296861194709
 H   -1.871479277248   -2.482809615332    0.285106296310
LI    0.652253491098   -1.460035466347   -6.389961929700
