17

 N   -1.746233337773   -1.476092914695    0.315958299615
 C   -0.536045270929   -0.820886711019    0.319919923583
 N    0.697367143374   -1.419564405481    0.331958208488
 C    1.667790343430   -0.529388263870    0.320085751515
 N    1.464713506017    0.832249869644    0.313250591173
 H    2.268540631268    1.452210409399    0.231262568751
 N    2.993245097667   -0.948062985550    0.241738448280
 H    3.647781302999   -0.416259761150    0.809379225010
 H    3.072050185058   -1.948763129485    0.403321786269
 C    0.205439763700    1.518283573175    0.326204377850
 O    0.177859394595    2.746456657952    0.322116249422
 C   -0.867345362276    0.544590183901    0.332405575790
 N   -2.238418664045    0.730921229214    0.332330391074
 C   -2.731942158556   -0.507681784831    0.322000291409
 H   -3.789440071824   -0.761828406663    0.319053646983
 H   -1.871330334304   -2.482675999927    0.307298748584
LI    0.649046858718   -1.462912108065   -6.867749155480
