17

 N   -1.746114183418   -1.475986022370    0.333712261434
 C   -0.535926116574   -0.820779818694    0.337673885402
 N    0.697486297729   -1.419457513156    0.349712170307
 C    1.667909497785   -0.529281371545    0.337839713334
 N    1.464832660372    0.832356761969    0.331004552992
 H    2.268659785623    1.452317301724    0.249016530570
 N    2.993364252022   -0.947956093225    0.259492410099
 H    3.647900457354   -0.416152868825    0.827133186829
 H    3.072169339413   -1.948656237160    0.421075748088
 C    0.205558918055    1.518390465500    0.343958339669
 O    0.177978548950    2.746563550277    0.339870211241
 C   -0.867226207921    0.544697076226    0.350159537609
 N   -2.238299509690    0.731028121539    0.350084352893
 C   -2.731823004201   -0.507574892506    0.339754253228
 H   -3.789320917469   -0.761721514338    0.336807608802
 H   -1.871211179949   -2.482569107602    0.325052710403
LI    0.646481552815   -1.465213421439   -7.249978936104
