17

 N   -1.746024817652   -1.475905853127    0.347027732798
 C   -0.535836750808   -0.820699649451    0.350989356766
 N    0.697575663495   -1.419377343913    0.363027641671
 C    1.667998863551   -0.529201202302    0.351155184698
 N    1.464922026138    0.832436931212    0.344320024356
 H    2.268749151389    1.452397470967    0.262332001934
 N    2.993453617788   -0.947875923982    0.272807881463
 H    3.647989823120   -0.416072699582    0.840448658193
 H    3.072258705179   -1.948576067917    0.434391219452
 C    0.205648283821    1.518470634743    0.357273811033
 O    0.178067914716    2.746643719520    0.353185682605
 C   -0.867136842155    0.544777245469    0.363475008973
 N   -2.238210143924    0.731108290782    0.363399824257
 C   -2.731733638435   -0.507494723263    0.353069724592
 H   -3.789231551703   -0.761641345095    0.350123080166
 H   -1.871121814183   -2.482488938359    0.338368181767
LI    0.644557573388   -1.466939406470   -7.536651271571
