17

 N   -1.745995029063   -1.475879130045    0.351466223253
 C   -0.535806962219   -0.820672926369    0.355427847221
 N    0.697605452084   -1.419350620831    0.367466132126
 C    1.668028652140   -0.529174479220    0.355593675153
 N    1.464951814727    0.832463654294    0.348758514811
 H    2.268778939978    1.452424194049    0.266770492389
 N    2.993483406377   -0.947849200900    0.277246371918
 H    3.648019611709   -0.416045976500    0.844887148648
 H    3.072288493768   -1.948549344835    0.438829709907
 C    0.205678072410    1.518497357825    0.361712301488
 O    0.178097703305    2.746670442602    0.357624173060
 C   -0.867107053566    0.544803968551    0.367913499428
 N   -2.238180355335    0.731135013864    0.367838314712
 C   -2.731703849846   -0.507468000181    0.357508215047
 H   -3.789201763114   -0.761614622013    0.354561570621
 H   -1.871092025594   -2.482462215277    0.342806672222
LI    0.643916246912   -1.467514734814   -7.632208716727
