17

 N   -1.745905663296   -1.475798960802    0.364781694617
 C   -0.535717596452   -0.820592757126    0.368743318585
 N    0.697694817851   -1.419270451588    0.380781603490
 C    1.668118017907   -0.529094309977    0.368909146517
 N    1.465041180494    0.832543823537    0.362073986175
 H    2.268868305745    1.452504363292    0.280085963753
 N    2.993572772144   -0.947769031657    0.290561843282
 H    3.648108977476   -0.415965807257    0.858202620012
 H    3.072377859535   -1.948469175592    0.452145181271
 C    0.205767438177    1.518577527068    0.375027772852
 O    0.178187069072    2.746750611845    0.370939644424
 C   -0.867017687799    0.544884137794    0.381228970792
 N   -2.238090989568    0.731215183107    0.381153786076
 C   -2.731614484079   -0.507387830938    0.370823686411
 H   -3.789112397347   -0.761534452770    0.367877041985
 H   -1.871002659827   -2.482382046034    0.356122143586
LI    0.641992267484   -1.469240719845   -7.918881052195
