17

 N   -1.745875874708   -1.475772237721    0.369220185072
 C   -0.535687807864   -0.820566034045    0.373181809040
 N    0.697724606439   -1.419243728507    0.385220093945
 C    1.668147806495   -0.529067586896    0.373347636972
 N    1.465070969082    0.832570546618    0.366512476630
 H    2.268898094333    1.452531086373    0.284524454208
 N    2.993602560732   -0.947742308576    0.295000333737
 H    3.648138766064   -0.415939084176    0.862641110467
 H    3.072407648123   -1.948442452511    0.456583671726
 C    0.205797226765    1.518604250149    0.379466263307
 O    0.178216857660    2.746777334926    0.375378134879
 C   -0.866987899211    0.544910860875    0.385667461247
 N   -2.238061200980    0.731241906188    0.385592276531
 C   -2.731584695491   -0.507361107857    0.375262176866
 H   -3.789082608759   -0.761507729689    0.372315532440
 H   -1.870972871239   -2.482355322953    0.360560634041
LI    0.641350941008   -1.469816048188   -8.014438497351
