17

 N   -1.745846086119   -1.475745514640    0.373658675527
 C   -0.535658019275   -0.820539310964    0.377620299495
 N    0.697754395028   -1.419217005426    0.389658584400
 C    1.668177595084   -0.529040863815    0.377786127427
 N    1.465100757671    0.832597269699    0.370950967085
 H    2.268927882922    1.452557809454    0.288962944663
 N    2.993632349321   -0.947715585495    0.299438824192
 H    3.648168554653   -0.415912361095    0.867079600922
 H    3.072437436712   -1.948415729430    0.461022162181
 C    0.205827015354    1.518630973230    0.383904753762
 O    0.178246646249    2.746804058007    0.379816625334
 C   -0.866958110622    0.544937583956    0.390105951702
 N   -2.238031412391    0.731268629269    0.390030766986
 C   -2.731554906902   -0.507334384776    0.379700667321
 H   -3.789052820170   -0.761481006608    0.376754022895
 H   -1.870943082650   -2.482328599872    0.364999124496
LI    0.640709614532   -1.470391376532   -8.109995942507
