17

 N   -1.745756720352   -1.475665345396    0.386974146891
 C   -0.535568653508   -0.820459141720    0.390935770859
 N    0.697843760795   -1.419136836182    0.402974055764
 C    1.668266960851   -0.528960694571    0.391101598791
 N    1.465190123438    0.832677438943    0.384266438449
 H    2.269017248689    1.452637978698    0.302278416027
 N    2.993721715088   -0.947635416251    0.312754295556
 H    3.648257920420   -0.415832191851    0.880395072286
 H    3.072526802479   -1.948335560186    0.474337633545
 C    0.205916381121    1.518711142474    0.397220225126
 O    0.178336012016    2.746884227251    0.393132096698
 C   -0.866868744855    0.545017753200    0.403421423066
 N   -2.237942046624    0.731348798513    0.403346238350
 C   -2.731465541135   -0.507254215532    0.393016138685
 H   -3.788963454403   -0.761400837364    0.390069494259
 H   -1.870853716883   -2.482248430628    0.378314595860
LI    0.638785635105   -1.472117361563   -8.396668277974
