17

 N   -1.745697143175   -1.475611899234    0.395851127800
 C   -0.535509076331   -0.820405695558    0.399812751768
 N    0.697903337972   -1.419083390020    0.411851036673
 C    1.668326538028   -0.528907248409    0.399978579700
 N    1.465249700615    0.832730885105    0.393143419358
 H    2.269076825866    1.452691424860    0.311155396936
 N    2.993781292265   -0.947581970089    0.321631276465
 H    3.648317497597   -0.415778745689    0.889272053195
 H    3.072586379656   -1.948282114024    0.483214614454
 C    0.205975958298    1.518764588636    0.406097206035
 O    0.178395589193    2.746937673413    0.402009077607
 C   -0.866809167678    0.545071199362    0.412298403975
 N   -2.237882469447    0.731402244675    0.412223219259
 C   -2.731405963958   -0.507200769370    0.401893119594
 H   -3.788903877226   -0.761347391202    0.398946475168
 H   -1.870794139706   -2.482194984466    0.387191576769
LI    0.637502982153   -1.473268018250   -8.587783168286
