17

 N   -1.745637565997   -1.475558453072    0.404728108710
 C   -0.535449499153   -0.820352249396    0.408689732678
 N    0.697962915150   -1.419029943858    0.420728017583
 C    1.668386115206   -0.528853802247    0.408855560610
 N    1.465309277793    0.832784331267    0.402020400268
 H    2.269136403044    1.452744871022    0.320032377846
 N    2.993840869443   -0.947528523927    0.330508257375
 H    3.648377074775   -0.415725299527    0.898149034105
 H    3.072645956834   -1.948228667862    0.492091595364
 C    0.206035535476    1.518818034798    0.414974186945
 O    0.178455166371    2.746991119575    0.410886058517
 C   -0.866749590500    0.545124645524    0.421175384885
 N   -2.237822892269    0.731455690837    0.421100200169
 C   -2.731346386780   -0.507147323208    0.410770100504
 H   -3.788844300048   -0.761293945040    0.407823456078
 H   -1.870734562528   -2.482141538304    0.396068557679
LI    0.636220329202   -1.474418674938   -8.778898058598
