17

 N   -1.745458834464   -1.475398114585    0.431359051439
 C   -0.535270767620   -0.820191910909    0.435320675407
 N    0.698141646683   -1.418869605371    0.447358960312
 C    1.668564846739   -0.528693463760    0.435486503339
 N    1.465488009326    0.832944669754    0.428651342997
 H    2.269315134577    1.452905209509    0.346663320575
 N    2.994019600976   -0.947368185440    0.357139200104
 H    3.648555806308   -0.415564961040    0.924779976834
 H    3.072824688367   -1.948068329375    0.518722538093
 C    0.206214267009    1.518978373285    0.441605129674
 O    0.178633897904    2.747151458062    0.437517001246
 C   -0.866570858967    0.545284984011    0.447806327614
 N   -2.237644160736    0.731616029324    0.447731142898
 C   -2.731167655247   -0.506986984721    0.437401043233
 H   -3.788665568515   -0.761133606553    0.434454398807
 H   -1.870555830995   -2.481981199817    0.422699500408
LI    0.632372370346   -1.477870644999   -9.352242729533
