16

 N   -2.021112972979   -0.268218133691    0.254103150334
 C   -0.788987240712   -0.898508413699    0.255058110642
 N   -0.518846304586   -2.219393888667    0.251593921695
 C    0.809282863877   -2.437587781417    0.267161350358
 H    1.123091146847   -3.484266513907    0.270540921049
 N    1.821632306918   -1.529606824276    0.281132620633
 C    1.509415563011   -0.218785741027    0.276486216733
 N    2.517042517813    0.705712896278    0.234664379802
 H    3.448494055200    0.375182787526    0.457122313935
 H    2.284305011786    1.665683651317    0.459474625242
 C    0.143914722137    0.157908112840    0.267715129018
 N   -0.479614589054    1.396873813470    0.277593338036
 C   -1.779540076211    1.088794425109    0.269138484878
 H   -2.589593604998    1.815375226211    0.273186622741
 H   -2.924902650149   -0.728475257525    0.246500094401
 K   -0.476145377420    1.408186822080   -0.922348319049
