16

 N   -2.021242435819   -0.268640308634    0.298882158199
 C   -0.789116703552   -0.898930588642    0.299837118507
 N   -0.518975767426   -2.219816063610    0.296372929560
 C    0.809153401037   -2.438009956360    0.311940358223
 H    1.122961684007   -3.484688688850    0.315319928914
 N    1.821502844078   -1.530028999219    0.325911628498
 C    1.509286100171   -0.219207915970    0.321265224598
 N    2.516913054973    0.705290721335    0.279443387667
 H    3.448364592360    0.374760612583    0.501901321800
 H    2.284175548946    1.665261476374    0.504253633107
 C    0.143785259297    0.157485937897    0.312494136883
 N   -0.479744051894    1.396451638527    0.322372345901
 C   -1.779669539051    1.088372250166    0.313917492743
 H   -2.589723067838    1.814953051268    0.317965630606
 H   -2.925032112989   -0.728897432468    0.291279102266
 K   -0.475696638321    1.409650148572   -1.077559587365
