16

 N   -2.021371898659   -0.269062483578    0.343661166064
 C   -0.789246166392   -0.899352763586    0.344616126372
 N   -0.519105230266   -2.220238238554    0.341151937425
 C    0.809023938197   -2.438432131304    0.356719366088
 H    1.122832221167   -3.485110863794    0.360098936779
 N    1.821373381238   -1.530451174163    0.370690636363
 C    1.509156637331   -0.219630090914    0.366044232463
 N    2.516783592133    0.704868546391    0.324222395532
 H    3.448235129520    0.374338437639    0.546680329665
 H    2.284046086106    1.664839301430    0.549032640972
 C    0.143655796457    0.157063762953    0.357273144748
 N   -0.479873514734    1.396029463583    0.367151353766
 C   -1.779799001891    1.087950075222    0.358696500608
 H   -2.589852530678    1.814530876324    0.362744638471
 H   -2.925161575829   -0.729319607412    0.336058110131
 K   -0.475247899222    1.411113475063   -1.232770855680
