16

 N   -2.021436630080   -0.269273571050    0.366050669996
 C   -0.789310897813   -0.899563851058    0.367005630304
 N   -0.519169961687   -2.220449326026    0.363541441357
 C    0.808959206776   -2.438643218776    0.379108870020
 H    1.122767489746   -3.485321951266    0.382488440711
 N    1.821308649817   -1.530662261635    0.393080140295
 C    1.509091905910   -0.219841178386    0.388433736395
 N    2.516718860712    0.704657458919    0.346611899464
 H    3.448170398099    0.374127350167    0.569069833597
 H    2.283981354685    1.664628213958    0.571422144904
 C    0.143591065036    0.156852675481    0.379662648680
 N   -0.479938246155    1.395818376111    0.389540857698
 C   -1.779863733312    1.087738987750    0.381086004540
 H   -2.589917262099    1.814319788852    0.385134142403
 H   -2.925226307250   -0.729530694884    0.358447614063
 K   -0.475023529673    1.411845138309   -1.310376489838
