16

 N   -2.021695555760   -0.270117920937    0.455608685727
 C   -0.789569823493   -0.900408200945    0.456563646035
 N   -0.519428887367   -2.221293675913    0.453099457088
 C    0.808700281096   -2.439487568663    0.468666885751
 H    1.122508564066   -3.486166301153    0.472046456442
 N    1.821049724137   -1.531506611522    0.482638156026
 C    1.508832980230   -0.220685528273    0.477991752126
 N    2.516459935032    0.703813109032    0.436169915195
 H    3.447911472419    0.373283000280    0.658627849328
 H    2.283722429005    1.663783864071    0.660980160635
 C    0.143332139356    0.156008325594    0.469220664411
 N   -0.480197171835    1.394974026224    0.479098873429
 C   -1.780122658992    1.086894637863    0.470644020271
 H   -2.590176187779    1.813475438965    0.474692158134
 H   -2.925485232930   -0.730375044771    0.448005629794
 K   -0.474126051475    1.414771791291   -1.620799026469
