16

 N   -2.021760287180   -0.270329008409    0.477998189659
 C   -0.789634554913   -0.900619288417    0.478953149967
 N   -0.519493618787   -2.221504763385    0.475488961020
 C    0.808635549676   -2.439698656135    0.491056389683
 H    1.122443832646   -3.486377388625    0.494435960374
 N    1.820984992717   -1.531717698994    0.505027659958
 C    1.508768248810   -0.220896615745    0.500381256058
 N    2.516395203612    0.703602021560    0.458559419127
 H    3.447846740999    0.373071912808    0.681017353260
 H    2.283657697585    1.663572776599    0.683369664567
 C    0.143267407936    0.155797238122    0.491610168343
 N   -0.480261903255    1.394762938752    0.501488377361
 C   -1.780187390412    1.086683550391    0.493033524203
 H   -2.590240919199    1.813264351493    0.497081662066
 H   -2.925549964350   -0.730586132243    0.470395133726
 K   -0.473901681926    1.415503454537   -1.698404660627
