16

 N   -2.021825018600   -0.270540095881    0.500387693592
 C   -0.789699286333   -0.900830375889    0.501342653900
 N   -0.519558350207   -2.221715850857    0.497878464953
 C    0.808570818256   -2.439909743607    0.513445893616
 H    1.122379101226   -3.486588476097    0.516825464307
 N    1.820920261297   -1.531928786466    0.527417163891
 C    1.508703517390   -0.221107703217    0.522770759991
 N    2.516330472192    0.703390934088    0.480948923060
 H    3.447782009579    0.372860825336    0.703406857193
 H    2.283592966165    1.663361689127    0.705759168500
 C    0.143202676516    0.155586150650    0.513999672276
 N   -0.480326634675    1.394551851280    0.523877881294
 C   -1.780252121832    1.086472462919    0.515423028136
 H   -2.590305650619    1.813053264021    0.519471165999
 H   -2.925614695770   -0.730797219715    0.492784637659
 K   -0.473677312376    1.416235117783   -1.776010294785
