16

 N   -2.022213407121   -0.271806620712    0.634724717187
 C   -0.790087674854   -0.902096900720    0.635679677495
 N   -0.519946738728   -2.222982375688    0.632215488548
 C    0.808182429735   -2.441176268438    0.647782917211
 H    1.121990712705   -3.487855000928    0.651162487902
 N    1.820531872776   -1.533195311297    0.661754187486
 C    1.508315128869   -0.222374228048    0.657107783586
 N    2.515942083671    0.702124409257    0.615285946655
 H    3.447393621058    0.371594300505    0.837743880788
 H    2.283204577644    1.662095164296    0.840096192095
 C    0.142814287995    0.154319625819    0.648336695871
 N   -0.480715023196    1.393285326449    0.658214904889
 C   -1.780640510353    1.085205938088    0.649760051731
 H   -2.590694039140    1.811786739190    0.653808189594
 H   -2.926003084291   -0.732063744546    0.627121661254
 K   -0.472331095080    1.420625097257   -2.241644099732
