16

 N   -2.022472332802   -0.272650970600    0.724282732917
 C   -0.790346600535   -0.902941250608    0.725237693225
 N   -0.520205664409   -2.223826725576    0.721773504278
 C    0.807923504054   -2.442020618326    0.737340932941
 H    1.121731787024   -3.488699350816    0.740720503632
 N    1.820272947095   -1.534039661185    0.751312203216
 C    1.508056203188   -0.223218577936    0.746665799316
 N    2.515683157990    0.701280059369    0.704843962385
 H    3.447134695377    0.370749950617    0.927301896518
 H    2.282945651963    1.661250814408    0.929654207825
 C    0.142555362314    0.153475275931    0.737894711601
 N   -0.480973948877    1.392440976561    0.747772920619
 C   -1.780899436034    1.084361588200    0.739318067461
 H   -2.590952964821    1.810942389302    0.743366205324
 H   -2.926262009972   -0.732908094434    0.716679676984
 K   -0.471433616882    1.423551750239   -2.552066636363
