16

 N   -2.022601795642   -0.273073145543    0.769061740782
 C   -0.790476063375   -0.903363425551    0.770016701090
 N   -0.520335127249   -2.224248900519    0.766552512143
 C    0.807794041214   -2.442442793269    0.782119940806
 H    1.121602324184   -3.489121525759    0.785499511497
 N    1.820143484255   -1.534461836128    0.796091211081
 C    1.507926740348   -0.223640752879    0.791444807181
 N    2.515553695150    0.700857884426    0.749622970250
 H    3.447005232537    0.370327775674    0.972080904383
 H    2.282816189123    1.660828639465    0.974433215690
 C    0.142425899474    0.153053100988    0.782673719466
 N   -0.481103411717    1.392018801618    0.792551928484
 C   -1.781028898874    1.083939413257    0.784097075326
 H   -2.591082427661    1.810520214359    0.788145213189
 H   -2.926391472812   -0.733330269377    0.761458684849
 K   -0.470984877783    1.425015076731   -2.707277904679
