16

 N   -2.022666527062   -0.273284233015    0.791451244715
 C   -0.790540794795   -0.903574513023    0.792406205023
 N   -0.520399858669   -2.224459987991    0.788942016076
 C    0.807729309794   -2.442653880741    0.804509444739
 H    1.121537592764   -3.489332613231    0.807889015430
 N    1.820078752835   -1.534672923600    0.818480715014
 C    1.507862008928   -0.223851840351    0.813834311114
 N    2.515488963730    0.700646796954    0.772012474183
 H    3.446940501117    0.370116688202    0.994470408316
 H    2.282751457703    1.660617551993    0.996822719623
 C    0.142361168054    0.152842013516    0.805063223399
 N   -0.481168143137    1.391807714146    0.814941432417
 C   -1.781093630294    1.083728325785    0.806486579259
 H   -2.591147159081    1.810309126887    0.810534717122
 H   -2.926456204232   -0.733541356849    0.783848188782
 K   -0.470760508234    1.425746739976   -2.784883538837
