16

 N   -2.022860721322   -0.273917495431    0.858619756513
 C   -0.790734989055   -0.904207775439    0.859574716821
 N   -0.520594052929   -2.225093250407    0.856110527874
 C    0.807535115534   -2.443287143157    0.871677956537
 H    1.121343398504   -3.489965875647    0.875057527228
 N    1.819884558575   -1.535306186016    0.885649226812
 C    1.507667814668   -0.224485102767    0.881002822912
 N    2.515294769470    0.700013534538    0.839180985981
 H    3.446746306857    0.369483425786    1.061638920114
 H    2.282557263443    1.659984289577    1.063991231421
 C    0.142166973794    0.152208751100    0.872231735197
 N   -0.481362337397    1.391174451730    0.882109944215
 C   -1.781287824554    1.083095063369    0.873655091057
 H   -2.591341353341    1.809675864471    0.877703228920
 H   -2.926650398492   -0.734174619265    0.851016700580
 K   -0.470087399586    1.427941729713   -3.017700441310
