16

 N   -2.022925452742   -0.274128582903    0.881009260445
 C   -0.790799720475   -0.904418862911    0.881964220753
 N   -0.520658784349   -2.225304337879    0.878500031806
 C    0.807470384114   -2.443498230629    0.894067460469
 H    1.121278667084   -3.490176963119    0.897447031160
 N    1.819819827155   -1.535517273488    0.908038730744
 C    1.507603083248   -0.224696190239    0.903392326844
 N    2.515230038050    0.699802447066    0.861570489913
 H    3.446681575437    0.369272338314    1.084028424046
 H    2.282492532023    1.659773202105    1.086380735353
 C    0.142102242374    0.151997663628    0.894621239129
 N   -0.481427068817    1.390963364258    0.904499448147
 C   -1.781352555974    1.082883975897    0.896044594989
 H   -2.591406084761    1.809464776999    0.900092732852
 H   -2.926715129912   -0.734385706737    0.873406204512
 K   -0.469863030036    1.428673392959   -3.095306075468
