16

 N   -2.022990184163   -0.274339670374    0.903398764378
 C   -0.790864451896   -0.904629950382    0.904353724686
 N   -0.520723515770   -2.225515425350    0.900889535739
 C    0.807405652693   -2.443709318100    0.916456964402
 H    1.121213935663   -3.490388050590    0.919836535093
 N    1.819755095734   -1.535728360959    0.930428234677
 C    1.507538351827   -0.224907277710    0.925781830777
 N    2.515165306629    0.699591359595    0.883959993846
 H    3.446616844016    0.369061250843    1.106417927979
 H    2.282427800602    1.659562114634    1.108770239286
 C    0.142037510953    0.151786576157    0.917010743062
 N   -0.481491800238    1.390752276787    0.926888952080
 C   -1.781417287395    1.082672888426    0.918434098922
 H   -2.591470816182    1.809253689528    0.922482236785
 H   -2.926779861333   -0.734596794208    0.895795708445
 K   -0.469638660487    1.429405056204   -3.172911709626
