16

 N   -2.023054915583   -0.274550757846    0.925788268310
 C   -0.790929183316   -0.904841037854    0.926743228618
 N   -0.520788247190   -2.225726512822    0.923279039671
 C    0.807340921273   -2.443920405572    0.938846468334
 H    1.121149204243   -3.490599138062    0.942226039025
 N    1.819690364314   -1.535939448431    0.952817738609
 C    1.507473620407   -0.225118365182    0.948171334709
 N    2.515100575209    0.699380272123    0.906349497778
 H    3.446552112596    0.368850163371    1.128807431911
 H    2.282363069182    1.659351027162    1.131159743218
 C    0.141972779533    0.151575488685    0.939400246994
 N   -0.481556531658    1.390541189315    0.949278456012
 C   -1.781482018815    1.082461800954    0.940823602854
 H   -2.591535547602    1.809042602056    0.944871740717
 H   -2.926844592753   -0.734807881680    0.918185212377
 K   -0.469414290937    1.430136719450   -3.250517343784
