16

 N   -2.023119647003   -0.274761845318    0.948177772243
 C   -0.790993914736   -0.905052125326    0.949132732551
 N   -0.520852978610   -2.225937600294    0.945668543604
 C    0.807276189853   -2.444131493044    0.961235972267
 H    1.121084472823   -3.490810225534    0.964615542958
 N    1.819625632894   -1.536150535903    0.975207242542
 C    1.507408888987   -0.225329452654    0.970560838642
 N    2.515035843789    0.699169184651    0.928739001711
 H    3.446487381176    0.368639075899    1.151196935844
 H    2.282298337762    1.659139939690    1.153549247151
 C    0.141908048113    0.151364401213    0.961789750927
 N   -0.481621263078    1.390330101843    0.971667959945
 C   -1.781546750235    1.082250713482    0.963213106787
 H   -2.591600279022    1.808831514584    0.967261244650
 H   -2.926909324173   -0.735018969152    0.940574716310
 K   -0.469189921388    1.430868382696   -3.328122977941
