16

 N   -2.023184378423   -0.274972932790    0.970567276175
 C   -0.791058646156   -0.905263212798    0.971522236483
 N   -0.520917710030   -2.226148687766    0.968058047536
 C    0.807211458433   -2.444342580516    0.983625476199
 H    1.121019741403   -3.491021313006    0.987005046890
 N    1.819560901474   -1.536361623375    0.997596746474
 C    1.507344157567   -0.225540540126    0.992950342574
 N    2.514971112369    0.698958097179    0.951128505643
 H    3.446422649756    0.368427988427    1.173586439776
 H    2.282233606342    1.658928852218    1.175938751083
 C    0.141843316693    0.151153313741    0.984179254859
 N   -0.481685994498    1.390119014371    0.994057463877
 C   -1.781611481655    1.082039626010    0.985602610719
 H   -2.591665010442    1.808620427112    0.989650748582
 H   -2.926974055593   -0.735230056624    0.962964220242
 K   -0.468965551839    1.431600045941   -3.405728612099
