16

 N   -2.023766961204   -0.276872720037    1.172072811569
 C   -0.791641228937   -0.907163000045    1.173027771877
 N   -0.521500292811   -2.228048475013    1.169563582930
 C    0.806628875652   -2.446242367763    1.185131011593
 H    1.120437158622   -3.492921100253    1.188510582284
 N    1.818978318693   -1.538261410622    1.199102281868
 C    1.506761574786   -0.227440327373    1.194455877968
 N    2.514388529588    0.697058309932    1.152634041037
 H    3.445840066975    0.366528201180    1.375091975170
 H    2.281651023561    1.657029064971    1.377444286477
 C    0.141260733912    0.149253526494    1.185684790253
 N   -0.482268577279    1.388219227124    1.195562999271
 C   -1.782194064436    1.080139838763    1.187108146113
 H   -2.592247593223    1.806720639865    1.191156283976
 H   -2.927556638374   -0.737129843871    1.164469755636
 K   -0.466946225894    1.438185015152   -4.104179319520
