16

 N   -2.024090618305   -0.277928157396    1.284020331231
 C   -0.791964886038   -0.908218437404    1.284975291539
 N   -0.521823949912   -2.229103912372    1.281511102592
 C    0.806305218551   -2.447297805122    1.297078531255
 H    1.120113501521   -3.493976537612    1.300458101946
 N    1.818654661592   -1.539316847981    1.311049801530
 C    1.506437917685   -0.228495764732    1.306403397630
 N    2.514064872487    0.696002872573    1.264581560699
 H    3.445516409874    0.365472763821    1.487039494832
 H    2.281327366460    1.655973627612    1.489391806139
 C    0.140937076811    0.148198089135    1.297632309915
 N   -0.482592234380    1.387163789765    1.307510518933
 C   -1.782517721537    1.079084401404    1.299055665775
 H   -2.592571250324    1.805665202506    1.303103803638
 H   -2.927880295475   -0.738185281230    1.276417275298
 K   -0.465824378147    1.441843331381   -4.492207490309
