16

 N   -2.024284812565   -0.278561419811    1.351188843029
 C   -0.792159080298   -0.908851699819    1.352143803337
 N   -0.522018144172   -2.229737174787    1.348679614390
 C    0.806111024291   -2.447931067537    1.364247043053
 H    1.119919307261   -3.494609800027    1.367626613744
 N    1.818460467332   -1.539950110396    1.378218313328
 C    1.506243723425   -0.229129027147    1.373571909428
 N    2.513870678227    0.695369610158    1.331750072497
 H    3.445322215614    0.364839501406    1.554208006630
 H    2.281133172200    1.655340365197    1.556560317937
 C    0.140742882551    0.147564826720    1.364800821713
 N   -0.482786428640    1.386530527350    1.374679030731
 C   -1.782711915797    1.078451138989    1.366224177573
 H   -2.592765444584    1.805031940091    1.370272315436
 H   -2.928074489735   -0.738818543645    1.343585787096
 K   -0.465151269499    1.444038321118   -4.725024392782
