16

 N   -2.024802663926   -0.280250119586    1.530304874489
 C   -0.792676931659   -0.910540399594    1.531259834797
 N   -0.522535995533   -2.231425874562    1.527795645850
 C    0.805593172930   -2.449619767312    1.543363074513
 H    1.119401455900   -3.496298499802    1.546742645204
 N    1.817942615971   -1.541638810171    1.557334344788
 C    1.505725872064   -0.230817726922    1.552687940888
 N    2.513352826866    0.693680910383    1.510866103957
 H    3.444804364253    0.363150801631    1.733324038090
 H    2.280615320839    1.653651665422    1.735676349397
 C    0.140225031190    0.145876126945    1.543916853173
 N   -0.483304280001    1.384841827575    1.553795062191
 C   -1.783229767158    1.076762439214    1.545340209033
 H   -2.593283295945    1.803343240316    1.549388346896
 H   -2.928592341096   -0.740507243420    1.522701818556
 K   -0.463356313103    1.449891627083   -5.345869466045
