16

 N   -2.025191052447   -0.281516644417    1.664641898085
 C   -0.793065320180   -0.911806924425    1.665596858393
 N   -0.522924384054   -2.232692399393    1.662132669446
 C    0.805204784409   -2.450886292143    1.677700098109
 H    1.119013067379   -3.497565024633    1.681079668800
 N    1.817554227450   -1.542905335002    1.691671368384
 C    1.505337483543   -0.232084251753    1.687024964484
 N    2.512964438345    0.692414385552    1.645203127553
 H    3.444415975732    0.361884276800    1.867661061686
 H    2.280226932318    1.652385140591    1.870013372993
 C    0.139836642669    0.144609602114    1.678253876769
 N   -0.483692668522    1.383575302744    1.688132085787
 C   -1.783618155679    1.075495914383    1.679677232629
 H   -2.593671684466    1.802076715485    1.683725370492
 H   -2.928980729617   -0.741773768251    1.657038842152
 K   -0.462010095807    1.454281606557   -5.811503270992
