16

 N   -2.025320515287   -0.281938819361    1.709420905950
 C   -0.793194783020   -0.912229099369    1.710375866258
 N   -0.523053846894   -2.233114574337    1.706911677311
 C    0.805075321569   -2.451308467087    1.722479105974
 H    1.118883604539   -3.497987199577    1.725858676665
 N    1.817424764610   -1.543327509946    1.736450376249
 C    1.505208020703   -0.232506426697    1.731803972349
 N    2.512834975505    0.691992210608    1.689982135418
 H    3.444286512892    0.361462101856    1.912440069551
 H    2.280097469478    1.651962965647    1.914792380858
 C    0.139707179829    0.144187427170    1.723032884634
 N   -0.483822131362    1.383153127800    1.732911093652
 C   -1.783747618519    1.075073739439    1.724456240494
 H   -2.593801147306    1.801654540541    1.728504378357
 H   -2.929110192457   -0.742195943195    1.701817850017
 K   -0.461561356708    1.455744933048   -5.966714539307
