16

 N   -2.025579440968   -0.282783169249    1.798978921680
 C   -0.793453708701   -0.913073449257    1.799933881988
 N   -0.523312772575   -2.233958924225    1.796469693041
 C    0.804816395888   -2.452152816975    1.812037121704
 H    1.118624678858   -3.498831549465    1.815416692395
 N    1.817165838929   -1.544171859834    1.826008391979
 C    1.504949095022   -0.233350776585    1.821361988079
 N    2.512576049824    0.691147860720    1.779540151148
 H    3.444027587211    0.360617751968    2.001998085281
 H    2.279838543797    1.651118615759    2.004350396588
 C    0.139448254148    0.143343077282    1.812590900364
 N   -0.484081057043    1.382308777912    1.822469109382
 C   -1.784006544200    1.074229389551    1.814014256224
 H   -2.594060072987    1.800810190653    1.818062394087
 H   -2.929369118138   -0.743040293083    1.791375865747
 K   -0.460663878511    1.458671586031   -6.277137075939
