16

 N   -2.025773635228   -0.283416431664    1.866147433478
 C   -0.793647902961   -0.913706711672    1.867102393786
 N   -0.523506966835   -2.234592186640    1.863638204839
 C    0.804622201628   -2.452786079390    1.879205633502
 H    1.118430484598   -3.499464811880    1.882585204193
 N    1.816971644669   -1.544805122249    1.893176903777
 C    1.504754900762   -0.233984039000    1.888530499877
 N    2.512381855564    0.690514598305    1.846708662946
 H    3.443833392951    0.359984489553    2.069166597079
 H    2.279644349537    1.650485353344    2.071518908386
 C    0.139254059888    0.142709814867    1.879759412162
 N   -0.484275251303    1.381675515497    1.889637621180
 C   -1.784200738460    1.073596127136    1.881182768022
 H   -2.594254267247    1.800176928238    1.885230905885
 H   -2.929563312398   -0.743673555498    1.858544377545
 K   -0.459990769862    1.460866575768   -6.509953978412
