16

 N   -2.025838366648   -0.283627519136    1.888536937410
 C   -0.793712634381   -0.913917799144    1.889491897718
 N   -0.523571698255   -2.234803274112    1.886027708771
 C    0.804557470208   -2.452997166862    1.901595137434
 H    1.118365753178   -3.499675899352    1.904974708125
 N    1.816906913249   -1.545016209721    1.915566407709
 C    1.504690169342   -0.234195126472    1.910920003809
 N    2.512317124144    0.690303510833    1.869098166878
 H    3.443768661531    0.359773402081    2.091556101011
 H    2.279579618117    1.650274265872    2.093908412318
 C    0.139189328468    0.142498727395    1.902148916094
 N   -0.484339982723    1.381464428025    1.912027125112
 C   -1.784265469880    1.073385039664    1.903572271954
 H   -2.594318998667    1.799965840766    1.907620409817
 H   -2.929628043818   -0.743884642970    1.880933881477
 K   -0.459766400313    1.461598239013   -6.587559612570
