16

 N   -2.025967829488   -0.284049694080    1.933315945276
 C   -0.793842097221   -0.914339974088    1.934270905584
 N   -0.523701161095   -2.235225449056    1.930806716637
 C    0.804428007368   -2.453419341806    1.946374145300
 H    1.118236290338   -3.500098074296    1.949753715991
 N    1.816777450409   -1.545438384665    1.960345415575
 C    1.504560706502   -0.234617301416    1.955699011675
 N    2.512187661304    0.689881335889    1.913877174744
 H    3.443639198691    0.359351227137    2.136335108877
 H    2.279450155277    1.649852090928    2.138687420184
 C    0.139059865628    0.142076552451    1.946927923960
 N   -0.484469445563    1.381042253081    1.956806132978
 C   -1.784394932720    1.072962864720    1.948351279820
 H   -2.594448461507    1.799543665822    1.952399417683
 H   -2.929757506658   -0.744306817914    1.925712889343
 K   -0.459317661214    1.463061565505   -6.742770880885
