16

 N   -2.026420949429   -0.285527306383    2.090042472803
 C   -0.794295217162   -0.915817586391    2.090997433111
 N   -0.524154281036   -2.236703061359    2.087533244164
 C    0.803974887427   -2.454896954109    2.103100672827
 H    1.117783170397   -3.501575686599    2.106480243518
 N    1.816324330468   -1.546915996968    2.117071943102
 C    1.504107586561   -0.236094913719    2.112425539202
 N    2.511734541363    0.688403723586    2.070603702271
 H    3.443186078750    0.357873614834    2.293061636404
 H    2.278997035336    1.648374478625    2.295413947711
 C    0.138606745687    0.140598940148    2.103654451487
 N   -0.484922565504    1.379564640778    2.113532660505
 C   -1.784848052661    1.071485252417    2.105077807347
 H   -2.594901581448    1.798066053519    2.109125945210
 H   -2.930210626599   -0.745784430217    2.082439416870
 K   -0.457747074368    1.468183208224   -7.286010319990
