16

 N   -2.026550412270   -0.285949481326    2.134821480669
 C   -0.794424680003   -0.916239761334    2.135776440977
 N   -0.524283743877   -2.237125236302    2.132312252030
 C    0.803845424586   -2.455319129052    2.147879680693
 H    1.117653707556   -3.501997861542    2.151259251384
 N    1.816194867627   -1.547338171911    2.161850950968
 C    1.503978123720   -0.236517088662    2.157204547068
 N    2.511605078522    0.687981548643    2.115382710137
 H    3.443056615909    0.357451439891    2.337840644270
 H    2.278867572495    1.647952303682    2.340192955577
 C    0.138477282846    0.140176765205    2.148433459353
 N   -0.485052028345    1.379142465835    2.158311668371
 C   -1.784977515502    1.071063077474    2.149856815213
 H   -2.595031044289    1.797643878576    2.153904953076
 H   -2.930340089440   -0.746206605160    2.127218424736
 K   -0.457298335269    1.469646534716   -7.441221588306
