16

 N   -2.026679875110   -0.286371656270    2.179600488534
 C   -0.794554142843   -0.916661936278    2.180555448842
 N   -0.524413206717   -2.237547411246    2.177091259895
 C    0.803715961746   -2.455741303996    2.192658688558
 H    1.117524244716   -3.502420036486    2.196038259249
 N    1.816065404787   -1.547760346855    2.206629958833
 C    1.503848660880   -0.236939263606    2.201983554933
 N    2.511475615682    0.687559373699    2.160161718002
 H    3.442927153069    0.357029264947    2.382619652135
 H    2.278738109655    1.647530128738    2.384971963442
 C    0.138347820006    0.139754590261    2.193212467218
 N   -0.485181491185    1.378720290891    2.203090676236
 C   -1.785106978342    1.070640902530    2.194635823078
 H   -2.595160507129    1.797221703632    2.198683960941
 H   -2.930469552280   -0.746628780104    2.171997432601
 K   -0.456849596171    1.471109861207   -7.596432856622
