8

 N    0.193470440579   -0.008463071699    0.596466693336
 H   -0.211178559421    0.810145928301    1.045762693336
 H   -0.211178559421   -0.827072071699    1.045762693336
 C    1.653908440579   -0.008463071699    0.734503693336
 H    2.053011440579   -0.890404071699    0.228114693336
 H    2.022589440579   -0.008463071699    1.770333693336
 H    2.053011440579    0.873477928301    0.228114693336
RB   -0.333369360194    0.003093944410   -0.253419334141
