8

 N    0.579269245879   -0.016926143397    1.218828583157
 H    0.174620245879    0.801682856603    1.668124583157
 H    0.174620245879   -0.835535143397    1.668124583157
 C    2.039707245879   -0.016926143397    1.356865583157
 H    2.438810245879   -0.898867143397    0.850476583157
 H    2.408388245879   -0.016926143397    2.392695583157
 H    2.438810245879    0.865014856603    0.850476583157
RB   -0.474410355666    0.006187888820   -0.480943471796
