8

 N    0.656429006939   -0.018618757737    1.343300961122
 H    0.251780006939    0.799990242263    1.792596961122
 H    0.251780006939   -0.837227757737    1.792596961122
 C    2.116867006939   -0.018618757737    1.481337961122
 H    2.515970006939   -0.900559757737    0.974948961122
 H    2.485548006939   -0.018618757737    2.517167961122
 H    2.515970006939    0.863322242263    0.974948961122
RB   -0.502618554760    0.006806677702   -0.526448299328
