8

 N    0.733588768000   -0.020311372076    1.467773339086
 H    0.328939768000    0.798297627924    1.917069339086
 H    0.328939768000   -0.838920372076    1.917069339086
 C    2.194026768000   -0.020311372076    1.605810339086
 H    2.593129768000   -0.902252372076    1.099421339086
 H    2.562707768000   -0.020311372076    2.641640339086
 H    2.593129768000    0.861629627924    1.099421339086
RB   -0.530826753855    0.007425466584   -0.571953126859
