8

 N    0.772168648530   -0.021157679246    1.530009528068
 H    0.367519648530    0.797451320754    1.979305528068
 H    0.367519648530   -0.839766679246    1.979305528068
 C    2.232606648530   -0.021157679246    1.668046528068
 H    2.631709648530   -0.903098679246    1.161657528068
 H    2.601287648530   -0.021157679246    2.703876528068
 H    2.631709648530    0.860783320754    1.161657528068
RB   -0.544930853402    0.007734861025   -0.594705540624
