8

 N    0.849328409590   -0.022850293586    1.654481906032
 H    0.444679409590    0.795758706414    2.103777906032
 H    0.444679409590   -0.841459293586    2.103777906032
 C    2.309766409590   -0.022850293586    1.792518906032
 H    2.708869409590   -0.904791293586    1.286129906032
 H    2.678447409590   -0.022850293586    2.828348906032
 H    2.708869409590    0.859090706414    1.286129906032
RB   -0.573139052497    0.008353649907   -0.640210368155
