8

 N    0.926488170650   -0.024542907926    1.778954283997
 H    0.521839170650    0.794066092074    2.228250283997
 H    0.521839170650   -0.843151907926    2.228250283997
 C    2.386926170650   -0.024542907926    1.916991283997
 H    2.786029170650   -0.906483907926    1.410602283997
 H    2.755607170650   -0.024542907926    2.952821283997
 H    2.786029170650    0.857398092074    1.410602283997
RB   -0.601347251591    0.008972438790   -0.685715195686
