8

 N    0.965068051180   -0.025389215096    1.841190472979
 H    0.560419051180    0.793219784904    2.290486472979
 H    0.560419051180   -0.843998215096    2.290486472979
 C    2.425506051180   -0.025389215096    1.979227472979
 H    2.824609051180   -0.907330215096    1.472838472979
 H    2.794187051180   -0.025389215096    3.015057472979
 H    2.824609051180    0.856551784904    1.472838472979
RB   -0.615451351138    0.009281833231   -0.708467609452
