8

 N    1.080807692770   -0.027928136605    2.027899039925
 H    0.676158692770    0.790680863395    2.477195039925
 H    0.676158692770   -0.846537136605    2.477195039925
 C    2.541245692770   -0.027928136605    2.165936039925
 H    2.940348692770   -0.909869136605    1.659547039925
 H    2.909926692770   -0.027928136605    3.201766039925
 H    2.940348692770    0.854012863395    1.659547039925
RB   -0.657763649780    0.010210016554   -0.776724850749
