8

 N    1.157967453830   -0.029620750945    2.152371417889
 H    0.753318453830    0.788988249055    2.601667417889
 H    0.753318453830   -0.848229750945    2.601667417889
 C    2.618405453830   -0.029620750945    2.290408417889
 H    3.017508453830   -0.911561750945    1.784019417889
 H    2.987086453830   -0.029620750945    3.326238417889
 H    3.017508453830    0.852320249055    1.784019417889
RB   -0.685971848875    0.010828805436   -0.822229678280
