8

 N    1.235127214890   -0.031313365284    2.276843795854
 H    0.830478214890    0.787295634716    2.726139795854
 H    0.830478214890   -0.849922365284    2.726139795854
 C    2.695565214890   -0.031313365284    2.414880795854
 H    3.094668214890   -0.913254365284    1.908491795854
 H    3.064246214890   -0.031313365284    3.450710795854
 H    3.094668214890    0.850627634716    1.908491795854
RB   -0.714180047969    0.011447594318   -0.867734505811
