8

 N    1.312286975950   -0.033005979624    2.401316173818
 H    0.907637975950    0.785603020376    2.850612173818
 H    0.907637975950   -0.851614979624    2.850612173818
 C    2.772724975950   -0.033005979624    2.539353173818
 H    3.171827975950   -0.914946979624    2.032964173818
 H    3.141405975950   -0.033005979624    3.575183173818
 H    3.171827975950    0.848935020376    2.032964173818
RB   -0.742388247064    0.012066383200   -0.913239333342
