8

 N    1.428026617540   -0.035544901134    2.588024740764
 H    1.023377617540    0.783064098866    3.037320740764
 H    1.023377617540   -0.854153901134    3.037320740764
 C    2.888464617540   -0.035544901134    2.726061740764
 H    3.287567617540   -0.917485901134    2.219672740764
 H    3.257145617540   -0.035544901134    3.761891740764
 H    3.287567617540    0.846396098866    2.219672740764
RB   -0.784700545705    0.012994566523   -0.981496574639
