8

 N    1.543766259130   -0.038083822643    2.774733307711
 H    1.139117259130    0.780525177357    3.224029307711
 H    1.139117259130   -0.856692822643    3.224029307711
 C    3.004204259130   -0.038083822643    2.912770307711
 H    3.403307259130   -0.920024822643    2.406381307711
 H    3.372885259130   -0.038083822643    3.948600307711
 H    3.403307259130    0.843857177357    2.406381307711
RB   -0.827012844347    0.013922749846   -1.049753815935
