8

 N    1.582346139660   -0.038930129813    2.836969496693
 H    1.177697139660    0.779678870187    3.286265496693
 H    1.177697139660   -0.857539129813    3.286265496693
 C    3.042784139660   -0.038930129813    2.975006496693
 H    3.441887139660   -0.920871129813    2.468617496693
 H    3.411465139660   -0.038930129813    4.010836496693
 H    3.441887139660    0.843010870187    2.468617496693
RB   -0.841116943894    0.014232144287   -1.072506229701
