8

 N    1.736665661780   -0.042315358493    3.085914252621
 H    1.332016661780    0.776293641507    3.535210252621
 H    1.332016661780   -0.860924358493    3.535210252621
 C    3.197103661780   -0.042315358493    3.223951252621
 H    3.596206661780   -0.924256358493    2.717562252621
 H    3.565784661780   -0.042315358493    4.259781252621
 H    3.596206661780    0.839625641507    2.717562252621
RB   -0.897533342083    0.015469722051   -1.163515884763
