8

 N    1.929565064431   -0.046546894342    3.397095197532
 H    1.524916064431    0.772062105658    3.846391197532
 H    1.524916064431   -0.865155894342    3.846391197532
 C    3.390003064431   -0.046546894342    3.535132197532
 H    3.789106064431   -0.928487894342    3.028743197532
 H    3.758684064431   -0.046546894342    4.570962197532
 H    3.789106064431    0.835394105658    3.028743197532
RB   -0.968053839819    0.017016694256   -1.277277953591
