8

 N    2.045304706021   -0.049085815851    3.583803764479
 H    1.640655706021    0.769523184149    4.033099764479
 H    1.640655706021   -0.867694815851    4.033099764479
 C    3.505742706021   -0.049085815851    3.721840764479
 H    3.904845706021   -0.931026815851    3.215451764479
 H    3.874423706021   -0.049085815851    4.757670764479
 H    3.904845706021    0.832855184149    3.215451764479
RB   -1.010366138461    0.017944877579   -1.345535194887
