8

 N    2.083884586551   -0.049932123021    3.646039953461
 H    1.679235586551    0.768676876979    4.095335953461
 H    1.679235586551   -0.868541123021    4.095335953461
 C    3.544322586551   -0.049932123021    3.784076953461
 H    3.943425586551   -0.931873123021    3.277687953461
 H    3.913003586551   -0.049932123021    4.819906953461
 H    3.943425586551    0.832008876979    3.277687953461
RB   -1.024470238008    0.018254272020   -1.368287608653
