8

 N    2.392523630791   -0.056702580380    4.143929465318
 H    1.987874630791    0.761906419620    4.593225465318
 H    1.987874630791   -0.875311580380    4.593225465318
 C    3.852961630791   -0.056702580380    4.281966465318
 H    4.252064630791   -0.938643580380    3.775577465318
 H    4.221642630791   -0.056702580380    5.317796465318
 H    4.252064630791    0.825238419620    3.775577465318
RB   -1.137303034386    0.020729427548   -1.550306918777
