8

 N    2.469683391851   -0.058395194720    4.268401843282
 H    2.065034391851    0.760213805280    4.717697843282
 H    2.065034391851   -0.877004194720    4.717697843282
 C    3.930121391851   -0.058395194720    4.406438843282
 H    4.329224391851   -0.940336194720    3.900049843282
 H    4.298802391851   -0.058395194720    5.442268843282
 H    4.329224391851    0.823545805280    3.900049843282
RB   -1.165511233481    0.021348216430   -1.595811746308
