8

 N    2.508263272381   -0.059241501890    4.330638032264
 H    2.103614272381    0.759367498110    4.779934032264
 H    2.103614272381   -0.877850501890    4.779934032264
 C    3.968701272381   -0.059241501890    4.468675032264
 H    4.367804272381   -0.941182501890    3.962286032264
 H    4.337382272381   -0.059241501890    5.504505032264
 H    4.367804272381    0.822699498110    3.962286032264
RB   -1.179615333028    0.021657610871   -1.618564160074
