8

 N    2.624002913971   -0.061780423399    4.517346599211
 H    2.219353913971    0.756828576601    4.966642599211
 H    2.219353913971   -0.880389423399    4.966642599211
 C    4.084440913971   -0.061780423399    4.655383599211
 H    4.483543913971   -0.943721423399    4.148994599211
 H    4.453121913971   -0.061780423399    5.691213599211
 H    4.483543913971    0.820160576601    4.148994599211
RB   -1.221927631670    0.022585794194   -1.686821401371
