8

 N    2.662582794501   -0.062626730569    4.579582788193
 H    2.257933794501    0.755982269431    5.028878788193
 H    2.257933794501   -0.881235730569    5.028878788193
 C    4.123020794501   -0.062626730569    4.717619788193
 H    4.522123794501   -0.944567730569    4.211230788193
 H    4.491701794501   -0.062626730569    5.753449788193
 H    4.522123794501    0.819314269431    4.211230788193
RB   -1.236031731217    0.022895188635   -1.709573815136
