8

 N    3.241281002452   -0.075321338117    5.513125622925
 H    2.836632002452    0.743287661883    5.962421622925
 H    2.836632002452   -0.893930338117    5.962421622925
 C    4.701719002452   -0.075321338117    5.651162622925
 H    5.100822002452   -0.957262338117    5.144773622925
 H    5.070400002452   -0.075321338117    6.686992622925
 H    5.100822002452    0.806619661883    5.144773622925
RB   -1.447593224425    0.027536105251   -2.050860021619
