8

 N    3.511340166162   -0.081245488306    5.948778945800
 H    3.106691166162    0.737363511694    6.398074945800
 H    3.106691166162   -0.899854488306    6.398074945800
 C    4.971778166162   -0.081245488306    6.086815945800
 H    5.370881166162   -0.963186488306    5.580426945800
 H    5.340459166162   -0.081245488306    7.122645945800
 H    5.370881166162    0.800695511694    5.580426945800
RB   -1.546321921256    0.029701866338   -2.210126917978
