8

 N    3.549920046692   -0.082091795475    6.011015134782
 H    3.145271046692    0.736517204525    6.460311134782
 H    3.145271046692   -0.900700795475    6.460311134782
 C    5.010358046692   -0.082091795475    6.149052134782
 H    5.409461046692   -0.964032795475    5.642663134782
 H    5.379039046692   -0.082091795475    7.184882134782
 H    5.409461046692    0.799849204525    5.642663134782
RB   -1.560426020803    0.030011260779   -2.232879331744
