14

 P    0.052929731721   -0.286830930582   -0.957321840537
 O   -0.534070268279    0.763169069418   -0.002321840537
 O   -0.213070268279   -0.238830930582   -2.469321840537
 O    1.715929731721   -0.460830930582   -0.670321840537
 O   -0.262070268279   -1.844830930582   -0.365321840537
 C    2.452929731721    0.704169069418   -1.047321840537
 H    2.121929731721    1.587169069418   -0.471321840537
 H    2.337929731721    0.915169069418   -2.125321840537
 H    3.512929731721    0.502169069418   -0.827321840537
 C   -1.653070268279   -2.167830930582   -0.415321840537
 H   -2.031070268279   -2.140830930582   -1.453321840537
 H   -2.246070268279   -1.468830930582    0.200678159463
 H   -1.763070268279   -3.187830930582   -0.015321840537
RB   -0.288409375469    0.692047148687    1.272273153230
