14

 P    0.029997605434   -0.280191791363   -1.076303632988
 O   -0.557002394566    0.769808208637   -0.121303632988
 O   -0.236002394566   -0.232191791363   -2.588303632988
 O    1.692997605434   -0.454191791363   -0.789303632988
 O   -0.285002394566   -1.838191791363   -0.484303632988
 C    2.429997605434    0.710808208637   -1.166303632988
 H    2.098997605434    1.593808208637   -0.590303632988
 H    2.314997605434    0.921808208637   -2.244303632988
 H    3.489997605434    0.508808208637   -0.946303632988
 C   -1.676002394566   -2.161191791363   -0.534303632988
 H   -2.054002394566   -2.134191791363   -1.572303632988
 H   -2.269002394566   -1.462191791363    0.081696367012
 H   -1.786002394566   -3.181191791363   -0.134303632988
RB   -0.254650526492    0.682273536967    1.447428667032
