14

 P    0.022353563338   -0.277978744957   -1.115964230472
 O   -0.564646436662    0.772021255043   -0.160964230472
 O   -0.243646436662   -0.229978744957   -2.627964230472
 O    1.685353563338   -0.451978744957   -0.828964230472
 O   -0.292646436662   -1.835978744957   -0.523964230472
 C    2.422353563338    0.713021255043   -1.205964230472
 H    2.091353563338    1.596021255043   -0.629964230472
 H    2.307353563338    0.924021255043   -2.283964230472
 H    3.482353563338    0.511021255043   -0.985964230472
 C   -1.683646436662   -2.158978744957   -0.573964230472
 H   -2.061646436662   -2.131978744957   -1.611964230472
 H   -2.276646436662   -1.459978744957    0.042035769528
 H   -1.793646436662   -3.178978744957   -0.173964230472
RB   -0.243397576833    0.679015666394    1.505813838300
