14

 P   -0.000578562949   -0.271339605738   -1.234946022923
 O   -0.587578562949    0.778660394262   -0.279946022923
 O   -0.266578562949   -0.223339605738   -2.746946022923
 O    1.662421437051   -0.445339605738   -0.947946022923
 O   -0.315578562949   -1.829339605738   -0.642946022923
 C    2.399421437051    0.719660394262   -1.324946022923
 H    2.068421437051    1.602660394262   -0.748946022923
 H    2.284421437051    0.930660394262   -2.402946022923
 H    3.459421437051    0.517660394262   -1.104946022923
 C   -1.706578562949   -2.152339605738   -0.692946022923
 H   -2.084578562949   -2.125339605738   -1.730946022923
 H   -2.299578562949   -1.453339605738   -0.076946022923
 H   -1.816578562949   -3.172339605738   -0.292946022923
RB   -0.209638727856    0.669242054675    1.680969352102
