14

 P   -0.015866647140   -0.266913512926   -1.314267217891
 O   -0.602866647140    0.783086487074   -0.359267217891
 O   -0.281866647140   -0.218913512926   -2.826267217891
 O    1.647133352860   -0.440913512926   -1.027267217891
 O   -0.330866647140   -1.824913512926   -0.722267217891
 C    2.384133352860    0.724086487074   -1.404267217891
 H    2.053133352860    1.607086487074   -0.828267217891
 H    2.269133352860    0.935086487074   -2.482267217891
 H    3.444133352860    0.522086487074   -1.184267217891
 C   -1.721866647140   -2.147913512926   -0.772267217891
 H   -2.099866647140   -2.120913512926   -1.810267217891
 H   -2.314866647140   -1.448913512926   -0.156267217891
 H   -1.831866647140   -3.167913512926   -0.372267217891
RB   -0.187132828538    0.662726313529    1.797739694637
