14

 P   -0.023510689236   -0.264700466519   -1.353927815375
 O   -0.610510689236    0.785299533481   -0.398927815375
 O   -0.289510689236   -0.216700466519   -2.865927815375
 O    1.639489310764   -0.438700466519   -1.066927815375
 O   -0.338510689236   -1.822700466519   -0.761927815375
 C    2.376489310764    0.726299533481   -1.443927815375
 H    2.045489310764    1.609299533481   -0.867927815375
 H    2.261489310764    0.937299533481   -2.521927815375
 H    3.436489310764    0.524299533481   -1.223927815375
 C   -1.729510689236   -2.145700466519   -0.811927815375
 H   -2.107510689236   -2.118700466519   -1.849927815375
 H   -2.322510689236   -1.446700466519   -0.195927815375
 H   -1.839510689236   -3.165700466519   -0.411927815375
RB   -0.175879878880    0.659468442956    1.856124865905
