14

 P   -0.038798773427   -0.260274373707   -1.433249010343
 O   -0.625798773427    0.789725626293   -0.478249010343
 O   -0.304798773427   -0.212274373707   -2.945249010343
 O    1.624201226573   -0.434274373707   -1.146249010343
 O   -0.353798773427   -1.818274373707   -0.841249010343
 C    2.361201226573    0.730725626293   -1.523249010343
 H    2.030201226573    1.613725626293   -0.947249010343
 H    2.246201226573    0.941725626293   -2.601249010343
 H    3.421201226573    0.528725626293   -1.303249010343
 C   -1.744798773427   -2.141274373707   -0.891249010343
 H   -2.122798773427   -2.114274373707   -1.929249010343
 H   -2.337798773427   -1.442274373707   -0.275249010343
 H   -1.854798773427   -3.161274373707   -0.491249010343
RB   -0.153373979562    0.652952701810    1.972895208440
