14

 P   -0.054086857618   -0.255848280894   -1.512570205310
 O   -0.641086857618    0.794151719106   -0.557570205310
 O   -0.320086857618   -0.207848280894   -3.024570205310
 O    1.608913142382   -0.429848280894   -1.225570205310
 O   -0.369086857618   -1.813848280894   -0.920570205310
 C    2.345913142382    0.735151719106   -1.602570205310
 H    2.014913142382    1.618151719106   -1.026570205310
 H    2.230913142382    0.946151719106   -2.680570205310
 H    3.405913142382    0.533151719106   -1.382570205310
 C   -1.760086857618   -2.136848280894   -0.970570205310
 H   -2.138086857618   -2.109848280894   -2.008570205310
 H   -2.353086857618   -1.437848280894   -0.354570205310
 H   -1.870086857618   -3.156848280894   -0.570570205310
RB   -0.130868080244    0.646436960664    2.089665550975
