14

 P   -0.061730899714   -0.253635234488   -1.552230802794
 O   -0.648730899714    0.796364765512   -0.597230802794
 O   -0.327730899714   -0.205635234488   -3.064230802794
 O    1.601269100286   -0.427635234488   -1.265230802794
 O   -0.376730899714   -1.811635234488   -0.960230802794
 C    2.338269100286    0.737364765512   -1.642230802794
 H    2.007269100286    1.620364765512   -1.066230802794
 H    2.223269100286    0.948364765512   -2.720230802794
 H    3.398269100286    0.535364765512   -1.422230802794
 C   -1.767730899714   -2.134635234488   -1.010230802794
 H   -2.145730899714   -2.107635234488   -2.048230802794
 H   -2.360730899714   -1.435635234488   -0.394230802794
 H   -1.877730899714   -3.154635234488   -0.610230802794
RB   -0.119615130585    0.643179090090    2.148050722242
