14

 P   -0.069374941810   -0.251422188082   -1.591891400278
 O   -0.656374941810    0.798577811918   -0.636891400278
 O   -0.335374941810   -0.203422188082   -3.103891400278
 O    1.593625058190   -0.425422188082   -1.304891400278
 O   -0.384374941810   -1.809422188082   -0.999891400278
 C    2.330625058190    0.739577811918   -1.681891400278
 H    1.999625058190    1.622577811918   -1.105891400278
 H    2.215625058190    0.950577811918   -2.759891400278
 H    3.390625058190    0.537577811918   -1.461891400278
 C   -1.775374941810   -2.132422188082   -1.049891400278
 H   -2.153374941810   -2.105422188082   -2.087891400278
 H   -2.368374941810   -1.433422188082   -0.433891400278
 H   -1.885374941810   -3.152422188082   -0.649891400278
RB   -0.108362180926    0.639921219517    2.206435893509
