14

 P   -0.092307068097   -0.244783048863   -1.710873192729
 O   -0.679307068097    0.805216951137   -0.755873192729
 O   -0.358307068097   -0.196783048863   -3.222873192729
 O    1.570692931903   -0.418783048863   -1.423873192729
 O   -0.407307068097   -1.802783048863   -1.118873192729
 C    2.307692931903    0.746216951137   -1.800873192729
 H    1.976692931903    1.629216951137   -1.224873192729
 H    2.192692931903    0.957216951137   -2.878873192729
 H    3.367692931903    0.544216951137   -1.580873192729
 C   -1.798307068097   -2.125783048863   -1.168873192729
 H   -2.176307068097   -2.098783048863   -2.206873192729
 H   -2.391307068097   -1.426783048863   -0.552873192729
 H   -1.908307068097   -3.145783048863   -0.768873192729
RB   -0.074603331949    0.630147607798    2.381591407312
