14

 P   -0.099951110192   -0.242570002457   -1.750533790213
 O   -0.686951110192    0.807429997543   -0.795533790213
 O   -0.365951110192   -0.194570002457   -3.262533790213
 O    1.563048889808   -0.416570002457   -1.463533790213
 O   -0.414951110192   -1.800570002457   -1.158533790213
 C    2.300048889808    0.748429997543   -1.840533790213
 H    1.969048889808    1.631429997543   -1.264533790213
 H    2.185048889808    0.959429997543   -2.918533790213
 H    3.360048889808    0.546429997543   -1.620533790213
 C   -1.805951110192   -2.123570002457   -1.208533790213
 H   -2.183951110192   -2.096570002457   -2.246533790213
 H   -2.398951110192   -1.424570002457   -0.592533790213
 H   -1.915951110192   -3.143570002457   -0.808533790213
RB   -0.063350382290    0.626889737225    2.439976578579
