14

 P   -0.122883236479   -0.235930863238   -1.869515582665
 O   -0.709883236479    0.814069136762   -0.914515582665
 O   -0.388883236479   -0.187930863238   -3.381515582665
 O    1.540116763521   -0.409930863238   -1.582515582665
 O   -0.437883236479   -1.793930863238   -1.277515582665
 C    2.277116763521    0.755069136762   -1.959515582665
 H    1.946116763521    1.638069136762   -1.383515582665
 H    2.162116763521    0.966069136762   -3.037515582665
 H    3.337116763521    0.553069136762   -1.739515582665
 C   -1.828883236479   -2.116930863238   -1.327515582665
 H   -2.206883236479   -2.089930863238   -2.365515582665
 H   -2.421883236479   -1.417930863238   -0.711515582665
 H   -1.938883236479   -3.136930863238   -0.927515582665
RB   -0.029591533313    0.617116125506    2.615132092382
