14

 P   -0.130527278575   -0.233717816832   -1.909176180148
 O   -0.717527278575    0.816282183168   -0.954176180148
 O   -0.396527278575   -0.185717816832   -3.421176180148
 O    1.532472721425   -0.407717816832   -1.622176180148
 O   -0.445527278575   -1.791717816832   -1.317176180148
 C    2.269472721425    0.757282183168   -1.999176180148
 H    1.938472721425    1.640282183168   -1.423176180148
 H    2.154472721425    0.968282183168   -3.077176180148
 H    3.329472721425    0.555282183168   -1.779176180148
 C   -1.836527278575   -2.114717816832   -1.367176180148
 H   -2.214527278575   -2.087717816832   -2.405176180148
 H   -2.429527278575   -1.415717816832   -0.751176180148
 H   -1.946527278575   -3.134717816832   -0.967176180148
RB   -0.018338583654    0.613858254933    2.673517263649
