14

 P   -0.176391531149   -0.220439538394   -2.147139765051
 O   -0.763391531149    0.829560461606   -1.192139765051
 O   -0.442391531149   -0.172439538394   -3.659139765051
 O    1.486608468851   -0.394439538394   -1.860139765051
 O   -0.491391531149   -1.778439538394   -1.555139765051
 C    2.223608468851    0.770560461606   -2.237139765051
 H    1.892608468851    1.653560461606   -1.661139765051
 H    2.108608468851    0.981560461606   -3.315139765051
 H    3.283608468851    0.568560461606   -2.017139765051
 C   -1.882391531149   -2.101439538394   -1.605139765051
 H   -2.260391531149   -2.074439538394   -2.643139765051
 H   -2.475391531149   -1.402439538394   -0.989139765051
 H   -1.992391531149   -3.121439538394   -1.205139765051
RB    0.049179114300    0.594311031494    3.023828291254
