14

 P   -0.184035573245   -0.218226491988   -2.186800362535
 O   -0.771035573245    0.831773508012   -1.231800362535
 O   -0.450035573245   -0.170226491988   -3.698800362535
 O    1.478964426755   -0.392226491988   -1.899800362535
 O   -0.499035573245   -1.776226491988   -1.594800362535
 C    2.215964426755    0.772773508012   -2.276800362535
 H    1.884964426755    1.655773508012   -1.700800362535
 H    2.100964426755    0.983773508012   -3.354800362535
 H    3.275964426755    0.570773508012   -2.056800362535
 C   -1.890035573245   -2.099226491988   -1.644800362535
 H   -2.268035573245   -2.072226491988   -2.682800362535
 H   -2.483035573245   -1.400226491988   -1.028800362535
 H   -2.000035573245   -3.119226491988   -1.244800362535
RB    0.060432063959    0.591053160921    3.082213462521
