14

 P   -0.191679615340   -0.216013445581   -2.226460960019
 O   -0.778679615340    0.833986554419   -1.271460960019
 O   -0.457679615340   -0.168013445581   -3.738460960019
 O    1.471320384660   -0.390013445581   -1.939460960019
 O   -0.506679615340   -1.774013445581   -1.634460960019
 C    2.208320384660    0.774986554419   -2.316460960019
 H    1.877320384660    1.657986554419   -1.740460960019
 H    2.093320384660    0.985986554419   -3.394460960019
 H    3.268320384660    0.572986554419   -2.096460960019
 C   -1.897679615340   -2.097013445581   -1.684460960019
 H   -2.275679615340   -2.070013445581   -2.722460960019
 H   -2.490679615340   -1.398013445581   -1.068460960019
 H   -2.007679615340   -3.117013445581   -1.284460960019
RB    0.071685013618    0.587795290348    3.140598633789
