14

 P   -0.206967699531   -0.211587352769   -2.305782154987
 O   -0.793967699531    0.838412647231   -1.350782154987
 O   -0.472967699531   -0.163587352769   -3.817782154987
 O    1.456032300469   -0.385587352769   -2.018782154987
 O   -0.521967699531   -1.769587352769   -1.713782154987
 C    2.193032300469    0.779412647231   -2.395782154987
 H    1.862032300469    1.662412647231   -1.819782154987
 H    2.078032300469    0.990412647231   -3.473782154987
 H    3.253032300469    0.577412647231   -2.175782154987
 C   -1.912967699531   -2.092587352769   -1.763782154987
 H   -2.290967699531   -2.065587352769   -2.801782154987
 H   -2.505967699531   -1.393587352769   -1.147782154987
 H   -2.022967699531   -3.112587352769   -1.363782154987
RB    0.094190912936    0.581279549202    3.257368976324
