14

 P   -0.222255783723   -0.207161259956   -2.385103349954
 O   -0.809255783723    0.842838740044   -1.430103349954
 O   -0.488255783723   -0.159161259956   -3.897103349954
 O    1.440744216277   -0.381161259956   -2.098103349954
 O   -0.537255783723   -1.765161259956   -1.793103349954
 C    2.177744216277    0.783838740044   -2.475103349954
 H    1.846744216277    1.666838740044   -1.899103349954
 H    2.062744216277    0.994838740044   -3.553103349954
 H    3.237744216277    0.581838740044   -2.255103349954
 C   -1.928255783723   -2.088161259956   -1.843103349954
 H   -2.306255783723   -2.061161259956   -2.881103349954
 H   -2.521255783723   -1.389161259956   -1.227103349954
 H   -2.038255783723   -3.108161259956   -1.443103349954
RB    0.116696812254    0.574763808056    3.374139318859
