14

 P   -0.229899825818   -0.204948213550   -2.424763947438
 O   -0.816899825818    0.845051786450   -1.469763947438
 O   -0.495899825818   -0.156948213550   -3.936763947438
 O    1.433100174182   -0.378948213550   -2.137763947438
 O   -0.544899825818   -1.762948213550   -1.832763947438
 C    2.170100174182    0.786051786450   -2.514763947438
 H    1.839100174182    1.669051786450   -1.938763947438
 H    2.055100174182    0.997051786450   -3.592763947438
 H    3.230100174182    0.584051786450   -2.294763947438
 C   -1.935899825818   -2.085948213550   -1.882763947438
 H   -2.313899825818   -2.058948213550   -2.920763947438
 H   -2.528899825818   -1.386948213550   -1.266763947438
 H   -2.045899825818   -3.105948213550   -1.482763947438
RB    0.127949761913    0.571505937483    3.432524490126
