14

 P   -0.252831952105   -0.198309074331   -2.543745739890
 O   -0.839831952105    0.851690925669   -1.588745739890
 O   -0.518831952105   -0.150309074331   -4.055745739890
 O    1.410168047895   -0.372309074331   -2.256745739890
 O   -0.567831952105   -1.756309074331   -1.951745739890
 C    2.147168047895    0.792690925669   -2.633745739890
 H    1.816168047895    1.675690925669   -2.057745739890
 H    2.032168047895    1.003690925669   -3.711745739890
 H    3.207168047895    0.590690925669   -2.413745739890
 C   -1.958831952105   -2.079309074331   -2.001745739890
 H   -2.336831952105   -2.052309074331   -3.039745739890
 H   -2.551831952105   -1.380309074331   -1.385745739890
 H   -2.068831952105   -3.099309074331   -1.601745739890
RB    0.161708610890    0.561732325764    3.607680003929
