14

 P   -0.260475994201   -0.196096027925   -2.583406337373
 O   -0.847475994201    0.853903972075   -1.628406337373
 O   -0.526475994201   -0.148096027925   -4.095406337373
 O    1.402524005799   -0.370096027925   -2.296406337373
 O   -0.575475994201   -1.754096027925   -1.991406337373
 C    2.139524005799    0.794903972075   -2.673406337373
 H    1.808524005799    1.677903972075   -2.097406337373
 H    2.024524005799    1.005903972075   -3.751406337373
 H    3.199524005799    0.592903972075   -2.453406337373
 C   -1.966475994201   -2.077096027925   -2.041406337373
 H   -2.344475994201   -2.050096027925   -3.079406337373
 H   -2.559475994201   -1.378096027925   -1.425406337373
 H   -2.076475994201   -3.097096027925   -1.641406337373
RB    0.172961560549    0.558474455191    3.666065175196
