14

 P   -0.306340246775   -0.182817749487   -2.821369922276
 O   -0.893340246775    0.867182250513   -1.866369922276
 O   -0.572340246775   -0.134817749487   -4.333369922276
 O    1.356659753225   -0.356817749487   -2.534369922276
 O   -0.621340246775   -1.740817749487   -2.229369922276
 C    2.093659753225    0.808182250513   -2.911369922276
 H    1.762659753225    1.691182250513   -2.335369922276
 H    1.978659753225    1.019182250513   -3.989369922276
 H    3.153659753225    0.606182250513   -2.691369922276
 C   -2.012340246775   -2.063817749487   -2.279369922276
 H   -2.390340246775   -2.036817749487   -3.317369922276
 H   -2.605340246775   -1.364817749487   -1.663369922276
 H   -2.122340246775   -3.083817749487   -1.879369922276
RB    0.240479258502    0.538927231752    4.016376202801
