14

 P   -0.329272373062   -0.176178610269   -2.940351714728
 O   -0.916272373062    0.873821389731   -1.985351714728
 O   -0.595272373062   -0.128178610269   -4.452351714728
 O    1.333727626938   -0.350178610269   -2.653351714728
 O   -0.644272373062   -1.734178610269   -2.348351714728
 C    2.070727626938    0.814821389731   -3.030351714728
 H    1.739727626938    1.697821389731   -2.454351714728
 H    1.955727626938    1.025821389731   -4.108351714728
 H    3.130727626938    0.612821389731   -2.810351714728
 C   -2.035272373062   -2.057178610269   -2.398351714728
 H   -2.413272373062   -2.030178610269   -3.436351714728
 H   -2.628272373062   -1.358178610269   -1.782351714728
 H   -2.145272373062   -3.077178610269   -1.998351714728
RB    0.274238107479    0.529153620033    4.191531716603
