14

 P   -0.359848541444   -0.167326424643   -3.098994104663
 O   -0.946848541444    0.882673575357   -2.143994104663
 O   -0.625848541444   -0.119326424643   -4.610994104663
 O    1.303151458556   -0.341326424643   -2.811994104663
 O   -0.674848541444   -1.725326424643   -2.506994104663
 C    2.040151458556    0.823673575357   -3.188994104663
 H    1.709151458556    1.706673575357   -2.612994104663
 H    1.925151458556    1.034673575357   -4.266994104663
 H    3.100151458556    0.621673575357   -2.968994104663
 C   -2.065848541444   -2.048326424643   -2.556994104663
 H   -2.443848541444   -2.021326424643   -3.594994104663
 H   -2.658848541444   -1.349326424643   -1.940994104663
 H   -2.175848541444   -3.068326424643   -2.156994104663
RB    0.319249906115    0.516122137741    4.425072401673
