14

 P   -0.390424709827   -0.158474239018   -3.257636494598
 O   -0.977424709827    0.891525760982   -2.302636494598
 O   -0.656424709827   -0.110474239018   -4.769636494598
 O    1.272575290173   -0.332474239018   -2.970636494598
 O   -0.705424709827   -1.716474239018   -2.665636494598
 C    2.009575290173    0.832525760982   -3.347636494598
 H    1.678575290173    1.715525760982   -2.771636494598
 H    1.894575290173    1.043525760982   -4.425636494598
 H    3.069575290173    0.630525760982   -3.127636494598
 C   -2.096424709827   -2.039474239018   -2.715636494598
 H   -2.474424709827   -2.012474239018   -3.753636494598
 H   -2.689424709827   -1.340474239018   -2.099636494598
 H   -2.206424709827   -3.059474239018   -2.315636494598
RB    0.364261704751    0.503090655448    4.658613086743
