14

 P   -0.421000878210   -0.149622053393   -3.416278884534
 O   -1.008000878210    0.900377946607   -2.461278884534
 O   -0.687000878210   -0.101622053393   -4.928278884534
 O    1.241999121790   -0.323622053393   -3.129278884534
 O   -0.736000878210   -1.707622053393   -2.824278884534
 C    1.978999121790    0.841377946607   -3.506278884534
 H    1.647999121790    1.724377946607   -2.930278884534
 H    1.863999121790    1.052377946607   -4.584278884534
 H    3.038999121790    0.639377946607   -3.286278884534
 C   -2.127000878210   -2.030622053393   -2.874278884534
 H   -2.505000878210   -2.003622053393   -3.912278884534
 H   -2.720000878210   -1.331622053393   -2.258278884534
 H   -2.237000878210   -3.050622053393   -2.474278884534
RB    0.409273503387    0.490059173156    4.892153771813
