14

 P   -0.436288962401   -0.145195960581   -3.495600079501
 O   -1.023288962401    0.904804039419   -2.540600079501
 O   -0.702288962401   -0.097195960581   -5.007600079501
 O    1.226711037599   -0.319195960581   -3.208600079501
 O   -0.751288962401   -1.703195960581   -2.903600079501
 C    1.963711037599    0.845804039419   -3.585600079501
 H    1.632711037599    1.728804039419   -3.009600079501
 H    1.848711037599    1.056804039419   -4.663600079501
 H    3.023711037599    0.643804039419   -3.365600079501
 C   -2.142288962401   -2.026195960581   -2.953600079501
 H   -2.520288962401   -1.999195960581   -3.991600079501
 H   -2.735288962401   -1.327195960581   -2.337600079501
 H   -2.252288962401   -3.046195960581   -2.553600079501
RB    0.431779402705    0.483543432010    5.008924114348
