14

 P   -0.443933004497   -0.142982914174   -3.535260676985
 O   -1.030933004497    0.907017085826   -2.580260676985
 O   -0.709933004497   -0.094982914174   -5.047260676985
 O    1.219066995503   -0.316982914174   -3.248260676985
 O   -0.758933004497   -1.700982914174   -2.943260676985
 C    1.956066995503    0.848017085826   -3.625260676985
 H    1.625066995503    1.731017085826   -3.049260676985
 H    1.841066995503    1.059017085826   -4.703260676985
 H    3.016066995503    0.646017085826   -3.405260676985
 C   -2.149933004497   -2.023982914174   -2.993260676985
 H   -2.527933004497   -1.996982914174   -4.031260676985
 H   -2.742933004497   -1.324982914174   -2.377260676985
 H   -2.259933004497   -3.043982914174   -2.593260676985
RB    0.443032352364    0.480285561437    5.067309285615
