14

 P   -0.451577046592   -0.140769867768   -3.574921274469
 O   -1.038577046592    0.909230132232   -2.619921274469
 O   -0.717577046592   -0.092769867768   -5.086921274469
 O    1.211422953408   -0.314769867768   -3.287921274469
 O   -0.766577046592   -1.698769867768   -2.982921274469
 C    1.948422953408    0.850230132232   -3.664921274469
 H    1.617422953408    1.733230132232   -3.088921274469
 H    1.833422953408    1.061230132232   -4.742921274469
 H    3.008422953408    0.648230132232   -3.444921274469
 C   -2.157577046592   -2.021769867768   -3.032921274469
 H   -2.535577046592   -1.994769867768   -4.070921274469
 H   -2.750577046592   -1.322769867768   -2.416921274469
 H   -2.267577046592   -3.041769867768   -2.632921274469
RB    0.454285302023    0.477027690864    5.125694456883
