14

 P   -0.459221088688   -0.138556821362   -3.614581871953
 O   -1.046221088688    0.911443178638   -2.659581871953
 O   -0.725221088688   -0.090556821362   -5.126581871953
 O    1.203778911312   -0.312556821362   -3.327581871953
 O   -0.774221088688   -1.696556821362   -3.022581871953
 C    1.940778911312    0.852443178638   -3.704581871953
 H    1.609778911312    1.735443178638   -3.128581871953
 H    1.825778911312    1.063443178638   -4.782581871953
 H    3.000778911312    0.650443178638   -3.484581871953
 C   -2.165221088688   -2.019556821362   -3.072581871953
 H   -2.543221088688   -1.992556821362   -4.110581871953
 H   -2.758221088688   -1.320556821362   -2.456581871953
 H   -2.275221088688   -3.039556821362   -2.672581871953
RB    0.465538251682    0.473769820291    5.184079628150
