14

 P   -0.489797257071   -0.129704635737   -3.773224261888
 O   -1.076797257071    0.920295364263   -2.818224261888
 O   -0.755797257071   -0.081704635737   -5.285224261888
 O    1.173202742929   -0.303704635737   -3.486224261888
 O   -0.804797257071   -1.687704635737   -3.181224261888
 C    1.910202742929    0.861295364263   -3.863224261888
 H    1.579202742929    1.744295364263   -3.287224261888
 H    1.795202742929    1.072295364263   -4.941224261888
 H    2.970202742929    0.659295364263   -3.643224261888
 C   -2.195797257071   -2.010704635737   -3.231224261888
 H   -2.573797257071   -1.983704635737   -4.269224261888
 H   -2.788797257071   -1.311704635737   -2.615224261888
 H   -2.305797257071   -3.030704635737   -2.831224261888
RB    0.510550050318    0.460738337999    5.417620313220
