14

 P   -0.497441299166   -0.127491589331   -3.812884859372
 O   -1.084441299166    0.922508410669   -2.857884859372
 O   -0.763441299166   -0.079491589331   -5.324884859372
 O    1.165558700834   -0.301491589331   -3.525884859372
 O   -0.812441299166   -1.685491589331   -3.220884859372
 C    1.902558700834    0.863508410669   -3.902884859372
 H    1.571558700834    1.746508410669   -3.326884859372
 H    1.787558700834    1.074508410669   -4.980884859372
 H    2.962558700834    0.661508410669   -3.682884859372
 C   -2.203441299166   -2.008491589331   -3.270884859372
 H   -2.581441299166   -1.981491589331   -4.308884859372
 H   -2.796441299166   -1.309491589331   -2.654884859372
 H   -2.313441299166   -3.028491589331   -2.870884859372
RB    0.521802999977    0.457480467425    5.476005484488
