14

 P   -0.520373425453   -0.120852450112   -3.931866651823
 O   -1.107373425453    0.929147549888   -2.976866651823
 O   -0.786373425453   -0.072852450112   -5.443866651823
 O    1.142626574547   -0.294852450112   -3.644866651823
 O   -0.835373425453   -1.678852450112   -3.339866651823
 C    1.879626574547    0.870147549888   -4.021866651823
 H    1.548626574547    1.753147549888   -3.445866651823
 H    1.764626574547    1.081147549888   -5.099866651823
 H    2.939626574547    0.668147549888   -3.801866651823
 C   -2.226373425453   -2.001852450112   -3.389866651823
 H   -2.604373425453   -1.974852450112   -4.427866651823
 H   -2.819373425453   -1.302852450112   -2.773866651823
 H   -2.336373425453   -3.021852450112   -2.989866651823
RB    0.555561848954    0.447706855706    5.651160998290
