14

 P   -0.528017467549   -0.118639403705   -3.971527249307
 O   -1.115017467549    0.931360596295   -3.016527249307
 O   -0.794017467549   -0.070639403705   -5.483527249307
 O    1.134982532451   -0.292639403705   -3.684527249307
 O   -0.843017467549   -1.676639403705   -3.379527249307
 C    1.871982532451    0.872360596295   -4.061527249307
 H    1.540982532451    1.755360596295   -3.485527249307
 H    1.756982532451    1.083360596295   -5.139527249307
 H    2.931982532451    0.670360596295   -3.841527249307
 C   -2.234017467549   -1.999639403705   -3.429527249307
 H   -2.612017467549   -1.972639403705   -4.467527249307
 H   -2.827017467549   -1.300639403705   -2.813527249307
 H   -2.344017467549   -3.019639403705   -3.029527249307
RB    0.566814798613    0.444448985133    5.709546169557
