14

 P   -0.535661509644   -0.116426357299   -4.011187846791
 O   -1.122661509644    0.933573642701   -3.056187846791
 O   -0.801661509644   -0.068426357299   -5.523187846791
 O    1.127338490356   -0.290426357299   -3.724187846791
 O   -0.850661509644   -1.674426357299   -3.419187846791
 C    1.864338490356    0.874573642701   -4.101187846791
 H    1.533338490356    1.757573642701   -3.525187846791
 H    1.749338490356    1.085573642701   -5.179187846791
 H    2.924338490356    0.672573642701   -3.881187846791
 C   -2.241661509644   -1.997426357299   -3.469187846791
 H   -2.619661509644   -1.970426357299   -4.507187846791
 H   -2.834661509644   -1.298426357299   -2.853187846791
 H   -2.351661509644   -3.017426357299   -3.069187846791
RB    0.578067748272    0.441191114560    5.767931340825
