14

 P   -0.581525762218   -0.103148078862   -4.249151431694
 O   -1.168525762218    0.946851921138   -3.294151431694
 O   -0.847525762218   -0.055148078862   -5.761151431694
 O    1.081474237782   -0.277148078862   -3.962151431694
 O   -0.896525762218   -1.661148078862   -3.657151431694
 C    1.818474237782    0.887851921138   -4.339151431694
 H    1.487474237782    1.770851921138   -3.763151431694
 H    1.703474237782    1.098851921138   -5.417151431694
 H    2.878474237782    0.685851921138   -4.119151431694
 C   -2.287525762218   -1.984148078862   -3.707151431694
 H   -2.665525762218   -1.957148078862   -4.745151431694
 H   -2.880525762218   -1.285148078862   -3.091151431694
 H   -2.397525762218   -3.004148078862   -3.307151431694
RB    0.645585446226    0.421643891122    6.118242368430
