14

 P   -0.589169804314   -0.100935032455   -4.288812029178
 O   -1.176169804314    0.949064967545   -3.333812029178
 O   -0.855169804314   -0.052935032455   -5.800812029178
 O    1.073830195686   -0.274935032455   -4.001812029178
 O   -0.904169804314   -1.658935032455   -3.696812029178
 C    1.810830195686    0.890064967545   -4.378812029178
 H    1.479830195686    1.773064967545   -3.802812029178
 H    1.695830195686    1.101064967545   -5.456812029178
 H    2.870830195686    0.688064967545   -4.158812029178
 C   -2.295169804314   -1.981935032455   -3.746812029178
 H   -2.673169804314   -1.954935032455   -4.784812029178
 H   -2.888169804314   -1.282935032455   -3.130812029178
 H   -2.405169804314   -3.001935032455   -3.346812029178
RB    0.656838395885    0.418386020549    6.176627539697
