14

 P   -0.596813846410   -0.098721986049   -4.328472626661
 O   -1.183813846410    0.951278013951   -3.373472626661
 O   -0.862813846410   -0.050721986049   -5.840472626661
 O    1.066186153590   -0.272721986049   -4.041472626661
 O   -0.911813846410   -1.656721986049   -3.736472626661
 C    1.803186153590    0.892278013951   -4.418472626661
 H    1.472186153590    1.775278013951   -3.842472626661
 H    1.688186153590    1.103278013951   -5.496472626661
 H    2.863186153590    0.690278013951   -4.198472626661
 C   -2.302813846410   -1.979721986049   -3.786472626661
 H   -2.680813846410   -1.952721986049   -4.824472626661
 H   -2.895813846410   -1.280721986049   -3.170472626661
 H   -2.412813846410   -2.999721986049   -3.386472626661
RB    0.668091345543    0.415128149976    6.235012710965
