14

 P   -0.604457888505   -0.096508939643   -4.368133224145
 O   -1.191457888505    0.953491060357   -3.413133224145
 O   -0.870457888505   -0.048508939643   -5.880133224145
 O    1.058542111495   -0.270508939643   -4.081133224145
 O   -0.919457888505   -1.654508939643   -3.776133224145
 C    1.795542111495    0.894491060357   -4.458133224145
 H    1.464542111495    1.777491060357   -3.882133224145
 H    1.680542111495    1.105491060357   -5.536133224145
 H    2.855542111495    0.692491060357   -4.238133224145
 C   -2.310457888505   -1.977508939643   -3.826133224145
 H   -2.688457888505   -1.950508939643   -4.864133224145
 H   -2.903457888505   -1.278508939643   -3.210133224145
 H   -2.420457888505   -2.997508939643   -3.426133224145
RB    0.679344295202    0.411870279402    6.293397882232
