25

 N    2.314172959718    2.851137860844    0.067408609480
 C    3.509212959718    3.563477860844    0.066198609480
 H    3.406332959718    4.647197860844    0.118688609480
 C    2.261372959718    1.488497860844    0.007458609480
 O    1.171112959718    0.867117860844    0.009808609480
 N    3.468402959718    0.865247860844   -0.054411390520
 H    3.462752959718   -0.152022139156   -0.099141390520
 C    4.765832959718    1.474107860844   -0.062621390520
 O    5.759002959718    0.766197860844   -0.121451390520
 C    4.711802959718    2.931667860844    0.004358609480
 H    5.646182959718    3.489877860844    0.004168609480
 H    1.423982959718    3.334757860844    0.114538609480
LI   -0.270157040282   -0.200042139156   -0.002131390520
 O   -1.154181601547   -0.854600723460   -0.009454968518
 C   -2.244447805605   -1.475980791394   -0.007104742789
 N   -2.297228019431   -2.838658584021   -0.066213819178
 H   -1.407022046992   -3.322302335870   -0.112720128776
 C   -3.492256843425   -3.550996630895   -0.064977008910
 H   -3.389363373922   -4.634753276239   -0.116738840468
 C   -4.694875234621   -2.919148309164   -0.003959631202
 H   -5.629258362403   -3.477366892482   -0.003739055868
 C   -4.748932852918   -1.461544845003    0.062085241195
 O   -5.742128759268   -0.753602722772    0.120114257905
 N   -3.451503466544   -0.852698619420    0.053952508987
 H   -3.445867760399    0.164600926581    0.098039530019
