25

 N    2.392097742342    2.908837935024    0.068019878131
 C    3.587137742342    3.621177935024    0.066809878131
 H    3.484257742342    4.704897935024    0.119299878131
 C    2.339297742342    1.546197935024    0.008069878131
 O    1.249037742342    0.924817935024    0.010419878131
 N    3.546327742342    0.922947935024   -0.053800121869
 H    3.540677742342   -0.094322064976   -0.098530121869
 C    4.843757742342    1.531807935024   -0.062010121869
 O    5.836927742342    0.823897935024   -0.120840121869
 C    4.789727742342    2.989367935024    0.004969878131
 H    5.724107742342    3.547577935024    0.004779878131
 H    1.501907742342    3.392457935024    0.115149878131
LI   -0.192232257658   -0.142342064976   -0.001520121869
 O   -1.236988557335   -0.915911300971   -0.010175259504
 C   -2.327254761393   -1.537291368906   -0.007825033775
 N   -2.380042082673   -2.899957667001   -0.067192189245
 H   -1.489841455996   -3.383592765146   -0.113890422672
 C   -3.575071067870   -3.612295453920   -0.065961431084
 H   -3.472183776373   -4.696042096213   -0.117944506875
 C   -4.777682446247   -2.980458471908   -0.004688944125
 H   -5.712065783002   -3.538676707378   -0.004473342440
 C   -4.831732150239   -1.522867803836    0.061644183713
 O   -5.824921342314   -0.814936529193    0.119919931054
 N   -3.534303408753   -0.914020542406    0.053486158043
 H   -3.528662400846    0.103270444001    0.097769573715
