25

 N    2.470022550101    2.966537969092    0.068632201756
 C    3.665062550101    3.678877969092    0.067422201756
 H    3.562182550101    4.762597969092    0.119912201756
 C    2.417222550101    1.603897969092    0.008682201756
 O    1.326962550101    0.982517969092    0.011032201756
 N    3.624252550101    0.980647969092   -0.053187798244
 H    3.618602550101   -0.036622030908   -0.097917798244
 C    4.921682550101    1.589507969092   -0.061397798244
 O    5.914852550101    0.881597969092   -0.120227798244
 C    4.867652550101    3.047067969092    0.005582201756
 H    5.802032550101    3.605277969092    0.005392201756
 H    1.579832550101    3.450157969092    0.115762201756
LI   -0.114307449899   -0.084642030908   -0.000907798244
 O   -1.319795487988   -0.977221918595   -0.010894495514
 C   -2.410061692046   -1.598601986530   -0.008544269786
 N   -2.462855929408   -2.961257095845   -0.068161565583
 H   -1.572660504325   -3.444883770912   -0.115045819059
 C   -3.657885071489   -3.673594629685   -0.066936673364
 H   -3.555003791327   -4.757331535623   -0.119134187672
 C   -4.860489625822   -3.041768685850   -0.005416924546
 H   -5.794873165646   -3.599986583249   -0.005206143486
 C   -4.914531628511   -1.584190473671    0.061195591736
 O   -5.907714286788   -0.876269758660    0.119710480079
 N   -3.617103514747   -0.975342203571    0.053013050633
 H   -3.611457347422    0.041940450148    0.097486819709
