25

 N    2.508984963098    2.995387971567    0.068938744090
 C    3.704024963098    3.707727971567    0.067728744090
 H    3.601144963098    4.791447971567    0.120218744090
 C    2.456184963098    1.632747971567    0.008988744090
 O    1.365924963098    1.011367971567    0.011338744090
 N    3.663214963098    1.009497971567   -0.052881255910
 H    3.657564963098   -0.007772028433   -0.097611255910
 C    4.960644963098    1.618357971567   -0.061091255910
 O    5.953814963098    0.910447971567   -0.119921255910
 C    4.906614963098    3.075917971567    0.005888744090
 H    5.840994963098    3.634127971567    0.005698744090
 H    1.618794963098    3.479007971567    0.116068744090
LI   -0.075345036902   -0.055792028433   -0.000601255910
 O   -1.361198944196   -1.007877241965   -0.011253732998
 C   -2.451465148255   -1.629257309900   -0.008903507270
 N   -2.504262774245   -2.991906935787   -0.068643009785
 H   -1.614069897671   -3.475529483004   -0.115618143836
 C   -3.699291993200   -3.704244345582   -0.067420983387
 H   -3.596413658258   -4.787976480121   -0.119723262185
 C   -4.901893203983   -3.072423811402   -0.005780434134
 H   -5.836276843206   -3.630641543306   -0.005572008191
 C   -4.955931433283   -1.614851703705    0.060968578114
 O   -5.949110890126   -0.906936163997    0.119600299437
 N   -3.658503627150   -1.006002939139    0.052774059923
 H   -3.652854931752    0.011275630596    0.097340826674
