25

 N    2.586909806738    3.053087948328    0.069552561200
 C    3.781949806738    3.765427948328    0.068342561200
 H    3.679069806738    4.849147948328    0.120832561200
 C    2.534109806738    1.690447948328    0.009602561200
 O    1.443849806738    1.069067948328    0.011952561200
 N    3.741139806738    1.067197948328   -0.052267438800
 H    3.735489806738    0.049927948328   -0.096997438800
 C    5.038569806738    1.676057948328   -0.060477438800
 O    6.031739806738    0.968147948328   -0.119307438800
 C    4.984539806738    3.133617948328    0.006502561200
 H    5.918919806738    3.691827948328    0.006312561200
 H    1.696719806738    3.536707948328    0.116682561200
LI    0.002579806738    0.001907948328    0.000012561200
 O   -1.444005838968   -1.069187916897   -0.011971475524
 C   -2.534272043027   -1.690567984831   -0.009621249796
 N   -2.587076311942   -3.053206858710   -0.069599654073
 H   -1.696888431204   -3.536821312259   -0.116752450435
 C   -3.782105681613   -3.765544025250   -0.068383230069
 H   -3.679233120136   -4.849266804358   -0.120890312818
 C   -4.984700337806   -3.133734098484   -0.006506528188
 H   -5.919084171700   -3.691951506233   -0.006302706241
 C   -5.038731169847   -1.676173960686    0.060509319864
 O   -6.031904350527   -0.968268569205    0.119369437861
 N   -3.741303966916   -1.067324226309    0.052291387664
 H   -3.735650315313   -0.050053665052    0.097039955487
