25

 N    5.781841336113    5.418766214104    0.095227544956
 C    6.976881336113    6.131106214104    0.094017544956
 H    6.874001336113    7.214826214104    0.146507544956
 C    5.729041336113    4.056126214104    0.035277544956
 O    4.638781336113    3.434746214104    0.037627544956
 N    6.936071336113    3.432876214104   -0.026592455044
 H    6.930421336113    2.415606214104   -0.071322455044
 C    8.233501336113    4.041736214104   -0.034802455044
 O    9.226671336113    3.333826214104   -0.093632455044
 C    8.179471336113    5.499296214104    0.032177544956
 H    9.113851336113    6.057506214104    0.031987544956
 H    4.891651336113    5.902386214104    0.142357544956
LI    3.197511336113    2.367586214104    0.025687544956
 O   -4.839075584477   -3.582946370475   -0.040890436846
 C   -5.929341788536   -4.204326438410   -0.038540211117
 N   -5.982319969106   -5.566682743844   -0.104487233999
 H   -5.092262812752   -6.050084618008   -0.156078661357
 C   -7.177353290565   -6.279013506024   -0.103410778460
 H   -7.074631784444   -7.362490597983   -0.161034584133
 C   -8.379776333532   -5.647482374676   -0.035634139562
 H   -9.314165184393   -6.205691414732   -0.035545332837
 C   -8.433613478748   -4.190236862978    0.038048222169
 O   -9.426622260506   -3.482598341645    0.102614514271
 N   -7.136202124697   -3.581361532861    0.029245317994
 H   -7.130418601683   -2.564301663205    0.078535938774
