25

 N    2.664834673154    3.110787888682    0.070167318742
 C    3.859874673154    3.823127888682    0.068957318742
 H    3.756994673154    4.906847888682    0.121447318742
 C    2.612034673154    1.748147888682    0.010217318742
 O    1.521774673154    1.126767888682    0.012567318742
 N    3.819064673154    1.124897888682   -0.051652681258
 H    3.813414673154    0.107627888682   -0.096382681258
 C    5.116494673154    1.733757888682   -0.059862681258
 O    6.109664673154    1.025847888682   -0.118692681258
 C    5.062464673154    3.191317888682    0.007117318742
 H    5.996844673154    3.749527888682    0.006927318742
 H    1.774644673154    3.594407888682    0.117297318742
LI    0.080504673154    0.059607888682    0.000627318742
 O   -1.526812710964   -1.130498628234   -0.012688277618
 C   -2.617078915023   -1.751878696168   -0.010338051890
 N   -2.669889653487   -3.114507095475   -0.070548281122
 H   -1.779706638000   -3.598113664572   -0.117873477015
 C   -3.864919169959   -3.826844025004   -0.069337293558
 H   -3.762052230986   -4.910557690607   -0.122043113472
 C   -5.067507442591   -3.195044432025   -0.007231434416
 H   -6.001891465841   -3.753261524430   -0.007032080057
 C   -5.121531070357   -1.737495955413    0.060043345172
 O   -6.114698138415   -1.029600450800    0.119125094250
 N   -3.824104455052   -1.128645275930    0.051802692520
 H   -3.818445976252   -0.111382517166    0.096727676097
