25

 N    2.703797114632    3.139637845635    0.070475037214
 C    3.898837114632    3.851977845635    0.069265037214
 H    3.795957114632    4.935697845635    0.121755037214
 C    2.650997114632    1.776997845635    0.010525037214
 O    1.560737114632    1.155617845635    0.012875037214
 N    3.858027114632    1.153747845635   -0.051344962786
 H    3.852377114632    0.136477845635   -0.096074962786
 C    5.155457114632    1.762607845635   -0.059554962786
 O    6.148627114632    1.054697845635   -0.118384962786
 C    5.101427114632    3.220167845635    0.007425037214
 H    6.035807114632    3.778377845635    0.007235037214
 H    1.813607114632    3.623257845635    0.117605037214
LI    0.119467114632    0.088457845635    0.000935037214
 O   -1.568216138692   -1.161153997127   -0.013046338964
 C   -2.658482342751   -1.782534065062   -0.010696113236
 N   -2.711296253043   -3.145157327860   -0.071019698676
 H   -1.821115622775   -3.628760030720   -0.118429193325
 C   -3.906325841493   -3.857494141151   -0.069811369387
 H   -3.803461658970   -4.941203337871   -0.122614366453
 C   -5.108910984439   -3.225699615672   -0.007593458466
 H   -6.043295100442   -3.783916553597   -0.007396288629
 C   -5.162931080136   -1.768156857513    0.059807931728
 O   -6.156095151263   -1.060266201389    0.118998052493
 N   -3.865504752986   -1.159305714456    0.051556169375
 H   -3.859843907430   -0.142046782106    0.096567415555
