25

 N    2.742759561483    3.168487793990    0.070782975544
 C    3.937799561483    3.880827793990    0.069572975544
 H    3.834919561483    4.964547793990    0.122062975544
 C    2.689959561483    1.805847793990    0.010832975544
 O    1.599699561483    1.184467793990    0.013182975544
 N    3.896989561483    1.182597793990   -0.051037024456
 H    3.891339561483    0.165327793990   -0.095767024456
 C    5.194419561483    1.791457793990   -0.059247024456
 O    6.187589561483    1.083547793990   -0.118077024456
 C    5.140389561483    3.249017793990    0.007732975544
 H    6.074769561483    3.807227793990    0.007542975544
 H    1.852569561483    3.652107793990    0.117912975544
LI    0.158429561483    0.117307793990    0.001242975544
 O   -1.609619561047   -1.191809374618   -0.013404180453
 C   -2.699885765105   -1.813189442552   -0.011053954724
 N   -2.752702806324   -3.175807634350   -0.071489241935
 H   -1.862524530472   -3.659406520366   -0.118981804990
 C   -3.947732465828   -3.888144332877   -0.070283532122
 H   -3.844871004145   -4.971849117828   -0.123182288029
 C   -5.150314519437   -3.256354810289   -0.007955204822
 H   -6.084698726942   -3.814571595807   -0.007760187618
 C   -5.204331128593   -1.798817697688    0.059570948092
 O   -6.197492241375   -1.090931828333    0.118867858861
 N   -3.906905085922   -1.189966096895    0.051308238180
 H   -3.901241904049   -0.172710942312    0.096404487967
