25

 N    3.015496831698    3.370437204706    0.072944315222
 C    4.210536831698    4.082777204706    0.071734315222
 H    4.107656831698    5.166497204706    0.124224315222
 C    2.962696831698    2.007797204706    0.012994315222
 O    1.872436831698    1.386417204706    0.015344315222
 N    4.169726831698    1.384547204706   -0.048875684778
 H    4.164076831698    0.367277204706   -0.093605684778
 C    5.467156831698    1.993407204706   -0.057085684778
 O    6.460326831698    1.285497204706   -0.115915684778
 C    5.413126831698    3.450967204706    0.009894315222
 H    6.347506831698    4.009177204706    0.009704315222
 H    2.125306831698    3.854057204706    0.120074315222
LI    0.431166831698    0.319257204706    0.003404315222
 O   -1.899443375273   -1.406397244822   -0.015903299501
 C   -2.989709579332   -2.027777312757   -0.013553073772
 N   -3.042547454381   -3.390361742898   -0.074726843468
 H   -2.152384844180   -3.873935219297   -0.122768588058
 C   -4.237577586795   -4.102697677164   -0.073538451551
 H   -4.134734228567   -5.186373092482   -0.127070287904
 C   -5.440139083080   -3.470941463219   -0.010480139707
 H   -6.374523898125   -4.029157236581   -0.010299353829
 C   -5.494132491625   -2.013441938408    0.057870844271
 O   -6.487273917472   -1.305587941199    0.117873765045
 N   -4.196708342889   -1.404587288283    0.049535757774
 H   -4.191029612705   -0.387357289044    0.095193983440
