25

 N    3.249271816624    3.543536408040    0.074804180725
 C    4.444311816624    4.255876408040    0.073594180725
 H    4.341431816624    5.339596408040    0.126084180725
 C    3.196471816624    2.180896408040    0.014854180725
 O    2.106211816624    1.559516408040    0.017204180725
 N    4.403501816624    1.557646408040   -0.047015819275
 H    4.397851816624    0.540376408040   -0.091745819275
 C    5.700931816624    2.166506408040   -0.055225819275
 O    6.694101816624    1.458596408040   -0.114055819275
 C    5.646901816624    3.624066408040    0.011754180725
 H    6.581281816624    4.182276408040    0.011564180725
 H    2.359081816624    4.027156408040    0.121934180725
LI    0.664941816624    0.492356408040    0.005264180725
 O   -2.147863605582   -1.590329996563   -0.018038112905
 C   -3.238129809641   -2.211710064498   -0.015687887177
 N   -3.290984158187   -3.574267777104   -0.077439794485
 H   -2.400833933610   -4.057821147976   -0.125911478028
 C   -4.486014664657   -4.286603106334   -0.076264960285
 H   -4.383185619095   -5.370255283389   -0.130292417675
 C   -5.688559905795   -3.654873251973   -0.012635163601
 H   -6.622945199616   -4.213088227418   -0.012465518851
 C   -5.742534968866   -2.197403473563    0.056361557977
 O   -6.735660826274   -1.489574702036    0.116917194759
 N   -4.445112318839   -1.588546408131    0.047969809711
 H   -4.439421292074   -0.571336320299    0.094067991098
