25

 N    3.522009487291    3.745485176357    0.076981444273
 C    4.717049487291    4.457825176357    0.075771444273
 H    4.614169487291    5.541545176357    0.128261444273
 C    3.469209487291    2.382845176357    0.017031444273
 O    2.378949487291    1.761465176357    0.019381444273
 N    4.676239487291    1.759595176357   -0.044838555727
 H    4.670589487291    0.742325176357   -0.089568555727
 C    5.973669487291    2.368455176357   -0.053048555727
 O    6.966839487291    1.660545176357   -0.111878555727
 C    5.919639487291    3.826015176357    0.013931444273
 H    6.854019487291    4.384225176357    0.013741444273
 H    2.631819487291    4.229105176357    0.124111444273
LI    0.937679487291    0.694305176357    0.007441444273
 O   -2.437687019357   -1.804918509166   -0.020521308084
 C   -3.527953223416   -2.426298577101   -0.018171082355
 N   -3.580825358772   -3.788827421096   -0.080541644211
 H   -2.690688505940   -4.272359070168   -0.129473397460
 C   -4.775856269238   -4.501162096353   -0.079381317891
 H   -4.673042675556   -5.584789167664   -0.133939130130
 C   -5.978383959045   -3.869460724360   -0.015139985638
 H   -6.912769768262   -4.427674840589   -0.014982262626
 C   -6.032339213569   -2.412023088278    0.054547728067
 O   -7.025448259641   -1.704221576696    0.115694816402
 N   -4.734918182845   -1.803163410966    0.046095346941
 H   -4.729213876878   -0.785974842016    0.092664317216
