25

 N    3.677859667279    3.860884339985    0.078228804033
 C    4.872899667279    4.573224339985    0.077018804033
 H    4.770019667279    5.656944339985    0.129508804033
 C    3.625059667279    2.498244339985    0.018278804033
 O    2.534799667279    1.876864339985    0.020628804033
 N    4.832089667279    1.874994339985   -0.043591195967
 H    4.826439667279    0.857724339985   -0.088321195967
 C    6.129519667279    2.483854339985   -0.051801195967
 O    7.122689667279    1.775944339985   -0.110631195967
 C    6.075489667279    3.941414339985    0.015178804033
 H    7.009869667279    4.499624339985    0.014988804033
 H    2.787669667279    4.344504339985    0.125358804033
LI    1.093529667279    0.809704339985    0.008688804033
 O   -2.603300316193   -1.927540648922   -0.021937067596
 C   -3.693566520251   -2.548920716856   -0.019586841867
 N   -3.746448192178   -3.911434073853   -0.082286771521
 H   -2.856318508193   -4.394954070971   -0.131463462930
 C   -4.941479319299   -4.623768398184   -0.081134169111
 H   -4.838674009526   -5.707382002595   -0.135974338854
 C   -6.143997598675   -3.992082306201   -0.016567259146
 H   -7.078383683578   -4.550295962721   -0.016415883117
 C   -6.197942232437   -2.534661913763    0.053488334455
 O   -7.191042264223   -1.826875027562    0.114950307969
 N   -4.900522070384   -1.925800834386    0.045003672721
 H   -4.894810643681   -0.908623811388    0.091823288157
