25

 N    3.716822221027    3.889734116814    0.078540981644
 C    4.911862221027    4.602074116814    0.077330981644
 H    4.808982221027    5.685794116814    0.129820981644
 C    3.664022221027    2.527094116814    0.018590981644
 O    2.573762221027    1.905714116814    0.020940981644
 N    4.871052221027    1.903844116814   -0.043279018356
 H    4.865402221027    0.886574116814   -0.088009018356
 C    6.168482221027    2.512704116814   -0.051489018356
 O    7.161652221027    1.804794116814   -0.110319018356
 C    6.114452221027    3.970264116814    0.015490981644
 H    7.048832221027    4.528474116814    0.015300981644
 H    2.826632221027    4.373354116814    0.125670981644
LI    1.132492221027    0.838554116814    0.009000981644
 O   -2.644703631650   -1.958196197938   -0.022290669803
 C   -3.734969835709   -2.579576265873   -0.019940444075
 N   -3.787853825210   -3.942085858308   -0.082720174690
 H   -2.897725883342   -4.425603023188   -0.131956210998
 C   -4.982885004988   -4.654420097326   -0.081569443671
 H   -4.880081708290   -5.738030428369   -0.136478024465
 C   -6.185400997431   -4.022737719614   -0.016923651024
 H   -7.119787149264   -4.580951264516   -0.016773812768
 C   -6.239343050115   -2.565321518785    0.053221074455
 O   -7.232440891176   -1.857538187847    0.114759340016
 N   -4.941923099215   -1.956460098503    0.044728591601
 H   -4.936209941933   -0.939285882271    0.091608934676
