25

 N    3.911635039458    4.033982920980    0.080103774430
 C    5.106675039458    4.746322920980    0.078893774430
 H    5.003795039458    5.830042920980    0.131383774430
 C    3.858835039458    2.671342920980    0.020153774430
 O    2.768575039458    2.049962920980    0.022503774430
 N    5.065865039458    2.048092920980   -0.041716225570
 H    5.060215039458    1.030822920980   -0.086446225570
 C    6.363295039458    2.656952920980   -0.049926225570
 O    7.356465039458    1.949042920980   -0.108756225570
 C    6.309265039458    4.114512920980    0.017053774430
 H    7.243645039458    4.672722920980    0.016863774430
 H    3.021445039458    4.517602920980    0.127233774430
LI    1.327305039458    0.982802920980    0.010563774430
 O   -2.851720159249   -2.111474023001   -0.024056776107
 C   -3.941986363307   -2.732854090936   -0.021706550378
 N   -3.994881562753   -4.095345469465   -0.084870952608
 H   -3.104762047065   -4.578848931844   -0.134393054328
 C   -5.189912997255   -4.807679295666   -0.083729242419
 H   -5.087119437220   -5.891273790144   -0.138967590984
 C   -6.392417927903   -4.176014888662   -0.018703204619
 H   -7.326804403103   -4.734227894223   -0.018560778979
 C   -6.446347495976   -2.718618968133    0.051871171128
 O   -7.439434740245   -2.010852839245    0.113777194014
 N   -5.148928566668   -2.109755897972    0.043340987402
 H   -5.143207038153   -1.092595262621    0.090514061338
