25

 N    3.950597612710    4.062832666410    0.080416698065
 C    5.145637612710    4.775172666410    0.079206698065
 H    5.042757612710    5.858892666410    0.131696698065
 C    3.897797612710    2.700192666410    0.020466698065
 O    2.807537612710    2.078812666410    0.022816698065
 N    5.104827612710    2.076942666410   -0.041403301935
 H    5.099177612710    1.059672666410   -0.086133301935
 C    6.402257612710    2.685802666410   -0.049613301935
 O    7.395427612710    1.977892666410   -0.108443301935
 C    6.348227612710    4.143362666410    0.017366698065
 H    7.282607612710    4.701572666410    0.017176698065
 H    3.060407612710    4.546452666410    0.127546698065
LI    1.366267612710    1.011652666410    0.010876698065
 O   -2.893123455203   -2.142129603417   -0.024409632290
 C   -3.983389659261   -2.763509671352   -0.022059406562
 N   -4.036287027941   -4.125997524365   -0.085297995892
 H   -3.146169142742   -4.609498334572   -0.134875267685
 C   -5.231318511740   -4.838331270650   -0.084158025445
 H   -5.128526835762   -5.921922699929   -0.139459972441
 C   -6.433821301809   -4.206670342112   -0.019058654223
 H   -7.368207839515   -4.764883243409   -0.018917658159
 C   -6.487748453965   -2.749278347119    0.051598583133
 O   -7.480833647573   -2.041515548040    0.113575531068
 N   -5.190329722395   -2.140414957509    0.043061128476
 H   -5.184606573861   -1.123256951095    0.090290657991
