25

 N    4.028522768376    4.120532142511    0.081042893235
 C    5.223562768376    4.832872142511    0.079832893235
 H    5.120682768376    5.916592142511    0.132322893235
 C    3.975722768376    2.757892142511    0.021092893235
 O    2.885462768376    2.136512142511    0.023442893235
 N    5.182752768376    2.134642142511   -0.040777106765
 H    5.177102768376    1.117372142511   -0.085507106765
 C    6.480182768376    2.743502142511   -0.048987106765
 O    7.473352768376    2.035592142511   -0.107817106765
 C    6.426152768376    4.201062142511    0.017992893235
 H    7.360532768376    4.759272142511    0.017802893235
 H    3.138332768376    4.604152142511    0.128172893235
LI    1.444192768376    1.069352142511    0.011502893235
 O   -2.975930037949   -2.203440779008   -0.025114996756
 C   -4.066196242008   -2.824820846942   -0.022764771028
 N   -4.119097879483   -4.187301761264   -0.086149116592
 H   -3.228983202842   -4.670797351747   -0.135834781641
 C   -5.314129460298   -4.899635350255   -0.085012564237
 H   -5.211341491845   -5.983220746958   -0.140439463778
 C   -6.516628037951   -4.267981267829   -0.019769114010
 H   -7.451014698593   -4.826193964045   -0.019630926643
 C   -6.570550435843   -2.810596998861    0.051050922484
 O   -7.563631593919   -2.102840753430    0.113167217673
 N   -5.273132093446   -2.201732980444    0.042499182543
 H   -5.267405756808   -1.184580148314    0.089839630981
