25

 N    4.067485350692    4.149381873337    0.081356160702
 C    5.262525350692    4.861721873337    0.080146160702
 H    5.159645350692    5.945441873337    0.132636160702
 C    4.014685350692    2.786741873337    0.021406160702
 O    2.924425350692    2.165361873337    0.023756160702
 N    5.221715350692    2.163491873337   -0.040463839298
 H    5.216065350692    1.146221873337   -0.085193839298
 C    6.519145350692    2.772351873337   -0.048673839298
 O    7.512315350692    2.064441873337   -0.107503839298
 C    6.465115350692    4.229911873337    0.018306160702
 H    7.399495350692    4.788121873337    0.018116160702
 H    3.177295350692    4.633001873337    0.128486160702
LI    1.483155350692    1.098201873337    0.011816160702
 O   -3.017333324838   -2.234096374028   -0.025467509107
 C   -4.107599528897   -2.855476441963   -0.023117283379
 N   -4.160503266670   -4.217953941936   -0.086573228688
 H   -3.270390168650   -4.701446963980   -0.136312139688
 C   -5.355534895219   -4.930287453523   -0.085438355400
 H   -5.252748750875   -6.013869881824   -0.140926635300
 C   -6.558031400309   -4.298636739899   -0.020124129332
 H   -7.492418121406   -4.856849335261   -0.019987321675
 C   -6.611951459038   -2.841256272725    0.050775878886
 O   -7.605030631550   -2.133503252240    0.112960625545
 N   -5.314533308141   -2.232391944846    0.042217121590
 H   -5.308805402872   -1.215241658934    0.089612056668
