25

 N    4.145410524060    4.207081320911    0.081983025583
 C    5.340450524060    4.919421320911    0.080773025583
 H    5.237570524060    6.003141320911    0.133263025583
 C    4.092610524060    2.844441320911    0.022033025583
 O    3.002350524060    2.223061320911    0.024383025583
 N    5.299640524060    2.221191320911   -0.039836974417
 H    5.293990524060    1.203921320911   -0.084566974417
 C    6.597070524060    2.830051320911   -0.048046974417
 O    7.590240524060    2.122141320911   -0.106876974417
 C    6.543040524060    4.287611320911    0.018933025583
 H    7.477420524060    4.845821320911    0.018743025583
 H    3.255220524060    4.690701320911    0.129113025583
LI    1.561080524060    1.155901320911    0.012443025583
 O   -3.100139889882   -2.295407578145   -0.026172203862
 C   -4.190406093941   -2.916787646080   -0.023821978134
 N   -4.243313965887   -4.279258424510   -0.087418640071
 H   -3.353203975134   -4.762746390377   -0.137262196557
 C   -5.438345688402   -4.991591783707   -0.086287066694
 H   -5.335563134514   -6.075168368499   -0.141895978816
 C   -6.640838113898   -4.359947701987   -0.020833743233
 H   -7.575224953932   -4.918160098919   -0.020699647146
 C   -6.694753568256   -2.902574719128    0.050223435256
 O   -7.687828832365   -2.194828047456    0.112542711174
 N   -5.397335794347   -2.293709781954    0.041650886586
 H   -5.391604801334   -1.276564508743    0.089152905525
