25

 N    4.184373115020    4.235931037804    0.082296619206
 C    5.379413115020    4.948271037804    0.081086619206
 H    5.276533115020    6.031991037804    0.133576619206
 C    4.131573115020    2.873291037804    0.022346619206
 O    3.041313115020    2.251911037804    0.024696619206
 N    5.338603115020    2.250041037804   -0.039523380794
 H    5.332953115020    1.232771037804   -0.084253380794
 C    6.636033115020    2.858901037804   -0.047733380794
 O    7.629203115020    2.150991037804   -0.106563380794
 C    6.582003115020    4.316461037804    0.019246619206
 H    7.516383115020    4.874671037804    0.019056619206
 H    3.294183115020    4.719551037804    0.129426619206
LI    1.600043115020    1.184751037804    0.012756619206
 O   -3.141543168128   -2.326063187098   -0.026524390058
 C   -4.231809372187   -2.947443255032   -0.024174164329
 N   -4.284719278698   -4.309910725164   -0.087839971683
 H   -3.394610817111   -4.793396202461   -0.137734948923
 C   -5.479751047459   -5.022244009352   -0.086710019818
 H   -5.376970260521   -6.105817718073   -0.142378208264
 C   -6.682241465245   -4.390603191820   -0.021188346602
 H   -7.616628363782   -4.948815491142   -0.021055582923
 C   -6.736154653627   -2.933233892710    0.049946062305
 O   -7.729227994246   -2.225490345943    0.112331443290
 N   -5.438737065267   -2.324368655604    0.041366736820
 H   -5.433004552627   -1.307225849693    0.088921374691
