25

 N    4.262298305274    4.293630458154    0.082924119657
 C    5.457338305274    5.005970458154    0.081714119657
 H    5.354458305274    6.089690458154    0.134204119657
 C    4.209498305274    2.930990458154    0.022974119657
 O    3.119238305274    2.309610458154    0.025324119657
 N    5.416528305274    2.307740458154   -0.038895880343
 H    5.410878305274    1.290470458154   -0.083625880343
 C    6.713958305274    2.916600458154   -0.047105880343
 O    7.707128305274    2.208690458154   -0.105935880343
 C    6.659928305274    4.374160458154    0.019874119657
 H    7.594308305274    4.932370458154    0.019684119657
 H    3.372108305274    4.777250458154    0.130054119657
LI    1.677968305274    1.242450458154    0.013384119657
 O   -3.224349716286   -2.387374418439   -0.027228449242
 C   -4.314615920345   -3.008754486374   -0.024878223514
 N   -4.367529832619   -4.371215442180   -0.088679964803
 H   -3.477424381689   -4.854696019358   -0.138676030816
 C   -5.562561692435   -5.083548578660   -0.087553200692
 H   -5.459784384296   -6.167116624276   -0.143337921283
 C   -6.765048157322   -4.451914188615   -0.021897157738
 H   -7.699435170988   -5.010126295842   -0.021767013455
 C   -6.818956884310   -2.994552143161    0.049389079523
 O   -7.812026437796   -2.286814749722    0.111904417388
 N   -5.521539661310   -2.385686315388    0.040796431397
 H   -5.515804156663   -1.368548367963    0.088454513571
