25

 N    4.457111327569    4.437878933763    0.084494617090
 C    5.652151327569    5.150218933763    0.083284617090
 H    5.549271327569    6.233938933763    0.135774617090
 C    4.404311327569    3.075238933763    0.024544617090
 O    3.314051327569    2.453858933763    0.026894617090
 N    5.611341327569    2.451988933763   -0.037325382910
 H    5.605691327569    1.434718933763   -0.082055382910
 C    6.908771327569    3.060848933763   -0.045535382910
 O    7.901941327569    2.352938933763   -0.104365382910
 C    6.854741327569    4.518408933763    0.021444617090
 H    7.789121327569    5.076618933763    0.021254617090
 H    3.566921327569    4.921498933763    0.131624617090
LI    1.872781327569    1.386698933763    0.014954617090
 O   -3.431366040020   -2.540652572060   -0.028986850899
 C   -4.521632244079   -3.162032639995   -0.026636625171
 N   -4.574555815944   -4.524477882839   -0.090765060299
 H   -3.684457624728   -5.007946641106   -0.141004075761
 C   -5.769587895356   -5.236810662994   -0.089645957409
 H   -5.666818975716   -6.320365049530   -0.145710742927
 C   -6.972064828075   -4.605191776556   -0.023666979892
 H   -7.906452119057   -5.163403421017   -0.023543130836
 C   -7.025962796646   -3.147847227568    0.047984150724
 O   -8.019023217405   -2.440124676993    0.110811817640
 N   -5.728546454906   -2.538979974651    0.039359483896
 H   -5.722803734808   -1.521853747063    0.087266176716
