25

 N    4.651924412611    4.582127308105    0.086067448322
 C    5.846964412611    5.294467308105    0.084857448322
 H    5.744084412611    6.378187308105    0.137347448322
 C    4.599124412611    3.219487308105    0.026117448322
 O    3.508864412611    2.598107308105    0.028467448322
 N    5.806154412611    2.596237308105   -0.035752551678
 H    5.800504412611    1.578967308105   -0.080482551678
 C    7.103584412611    3.205097308105   -0.043962551678
 O    8.096754412611    2.497187308105   -0.102792551678
 C    7.049554412611    4.662657308105    0.023017448322
 H    7.983934412611    5.220867308105    0.022827448322
 H    3.761734412611    5.065747308105    0.133197448322
LI    2.067594412611    1.530947308105    0.016527448322
 O   -3.638382301008   -2.693930826946   -0.030742918757
 C   -4.728648505067   -3.315310894881   -0.028392693029
 N   -4.781581259433   -4.677741195435   -0.092830260073
 H   -3.891489969042   -5.161198715101   -0.143299164829
 C   -5.976613547626   -5.390073636686   -0.091718406568
 H   -5.873852601706   -6.473615034963   -0.148048201641
 C   -7.179081418902   -4.758469493584   -0.025433854316
 H   -8.113468973107   -5.316680698728   -0.025315962030
 C   -7.232969160285   -3.301141583168    0.046562554275
 O   -8.226020898940   -2.593433148302    0.109685760575
 N   -5.935553656563   -2.692272974468    0.037907589924
 H   -5.929804076796   -1.675157893008    0.086049529019
