25

 N    4.690887036745    4.610976971468    0.086382278154
 C    5.885927036745    5.323316971468    0.085172278154
 H    5.783047036745    6.407036971468    0.137662278154
 C    4.638087036745    3.248336971468    0.026432278154
 O    3.547827036745    2.626956971468    0.028782278154
 N    5.845117036745    2.625086971468   -0.035437721846
 H    5.839467036745    1.607816971468   -0.080167721846
 C    7.142547036745    3.233946971468   -0.043647721846
 O    8.135717036745    2.526036971468   -0.102477721846
 C    7.088517036745    4.691506971468    0.023332278154
 H    8.022897036745    5.249716971468    0.023142278154
 H    3.800697036745    5.094596971468    0.133512278154
LI    2.106557036745    1.559796971468    0.016842278154
 O   -3.679785546080   -2.724586489430   -0.031093868744
 C   -4.770051750139   -3.345966557364   -0.028743643016
 N   -4.822986286826   -4.708393957021   -0.093241052957
 H   -3.932896335845   -5.191849294894   -0.143754460527
 C   -6.018018615546   -5.420726332471   -0.092130602815
 H   -5.915259217270   -6.504265209305   -0.148511699409
 C   -7.220484727991   -4.789125051656   -0.025786896277
 H   -8.154872333243   -5.347336171595   -0.025670157119
 C   -7.274370484265   -3.331800371482    0.046276352501
 O   -8.267420537677   -2.624094677134    0.109456770412
 N   -5.976955143234   -2.722931499509    0.037615523040
 H   -5.971204231942   -1.705818582084    0.085803001985
