25

 N    4.768812291864    4.668676287127    0.087012190246
 C    5.963852291864    5.381016287127    0.085802190246
 H    5.860972291864    6.464736287127    0.138292190246
 C    4.716012291864    3.306036287127    0.027062190246
 O    3.625752291864    2.684656287127    0.029412190246
 N    5.923042291864    2.682786287127   -0.034807809754
 H    5.917392291864    1.665516287127   -0.079537809754
 C    7.220472291864    3.291646287127   -0.043017809754
 O    8.213642291864    2.583736287127   -0.101847809754
 C    7.166442291864    4.749206287127    0.023962190246
 H    8.100822291864    5.307416287127    0.023772190246
 H    3.878622291864    5.152296287127    0.134142190246
LI    2.184482291864    1.617496287127    0.017472190246
 O   -3.762592029373   -2.785897825462   -0.031795516288
 C   -4.852858233431   -3.407277893397   -0.029445290559
 N   -4.905796282675   -4.769699575462   -0.094060486753
 H   -4.015708971338   -5.253150613146   -0.144661487329
 C   -6.100828691270   -5.482031821213   -0.092952798791
 H   -5.998072343005   -6.565565728445   -0.149434870001
 C   -7.303291337442   -4.850436181905   -0.026492661365
 H   -8.237679043255   -5.408647133986   -0.026378191856
 C   -7.357173181495   -3.393117868477    0.045702146136
 O   -8.350219913622   -2.685417575709    0.108995171254
 N   -6.059758161122   -2.784248477546    0.037029772622
 H   -6.054004625628   -1.767139825494    0.085306885743
