25

 N    4.924662828596    4.784074875640    0.088272987534
 C    6.119702828596    5.496414875640    0.087062987534
 H    6.016822828596    6.580134875640    0.139552987534
 C    4.871862828596    3.421434875640    0.028322987534
 O    3.781602828596    2.800054875640    0.030672987534
 N    6.078892828596    2.798184875640   -0.033547012466
 H    6.073242828596    1.780914875640   -0.078277012466
 C    7.376322828596    3.407044875640   -0.041757012466
 O    8.369492828596    2.699134875640   -0.100587012466
 C    7.322292828596    4.864604875640    0.025222987534
 H    8.256672828596    5.422814875640    0.025032987534
 H    4.034472828596    5.267694875640    0.135402987534
LI    2.340332828596    1.732894875640    0.018732987534
 O   -3.928204969464   -2.908520540332   -0.033197838271
 C   -5.018471173523   -3.529900608267   -0.030847612543
 N   -5.071416046457   -4.892311180867   -0.095691058605
 H   -4.181333862910   -5.375753863394   -0.146461799624
 C   -6.266448610232   -5.604643174585   -0.094588723284
 H   -6.163698186906   -6.688167426073   -0.151266466229
 C   -7.468904522601   -4.973058496961   -0.027902962453
 H   -8.403292423610   -5.531269123188   -0.027792891120
 C   -7.522778766499   -3.515752554431    0.044546783648
 O   -8.515819046331   -2.808062757440    0.108058022541
 N   -6.225364369167   -2.906882154929    0.035852039695
 H   -6.219605735516   -1.889781791081    0.084302848740
