25

 N    4.963625468116    4.812924514143    0.088588382272
 C    6.158665468116    5.525264514143    0.087378382272
 H    6.055785468116    6.608984514143    0.139868382272
 C    4.910825468116    3.450284514143    0.028638382272
 O    3.820565468116    2.828904514143    0.030988382272
 N    6.117855468116    2.827034514143   -0.033231617728
 H    6.112205468116    1.809764514143   -0.077961617728
 C    7.415285468116    3.435894514143   -0.041441617728
 O    8.408455468116    2.727984514143   -0.100271617728
 C    7.361255468116    4.893454514143    0.025538382272
 H    8.295635468116    5.451664514143    0.025348382272
 H    4.073435468116    5.296544514143    0.135718382272
LI    2.379295468116    1.761744514143    0.019048382272
 O   -3.969608199150   -2.939176227675   -0.033548223351
 C   -5.059874403208   -3.560556295610   -0.031197997623
 N   -5.112820941489   -4.922964156475   -0.096097035640
 H   -4.222740009372   -5.406404799623   -0.146909118203
 C   -6.307853543139   -5.635296088670   -0.094996003995
 H   -6.205104565779   -6.718817983335   -0.151721404242
 C   -7.510307812093   -5.003714086719   -0.028255290902
 H   -8.444695760709   -5.561924633467   -0.028146290774
 C   -7.564180201135   -3.546411163849    0.044256547393
 O   -8.557218906225   -2.838723928862    0.107820933880
 N   -6.266765955881   -2.937540518121    0.035556354950
 H   -6.261006077959   -1.920442177446    0.084049468937
