25

 N    5.002588109712    4.841774149292    0.088903852772
 C    6.197628109712    5.554114149292    0.087693852772
 H    6.094748109712    6.637834149292    0.140183852772
 C    4.949788109712    3.479134149292    0.028953852772
 O    3.859528109712    2.857754149292    0.031303852772
 N    6.156818109712    2.855884149292   -0.032916147228
 H    6.151168109712    1.838614149292   -0.077646147228
 C    7.454248109712    3.464744149292   -0.041126147228
 O    8.447418109712    2.756834149292   -0.099956147228
 C    7.400218109712    4.922304149292    0.025853852772
 H    8.334598109712    5.480514149292    0.025663852772
 H    4.112398109712    5.325394149292    0.136033852772
LI    2.418258109712    1.790594149292    0.019363852772
 O   -4.011011426760   -2.969831918372   -0.033898532669
 C   -5.101277630819   -3.591211986307   -0.031548306941
 N   -5.154225818675   -4.953617160956   -0.096502366804
 H   -4.264146126125   -5.437055783934   -0.147355366944
 C   -6.349258457841   -5.665949032204   -0.095402625465
 H   -6.246510912738   -6.749468592252   -0.152175194277
 C   -7.551711098943   -5.034369680752   -0.028607523660
 H   -8.486099094703   -5.592580148791   -0.028499583750
 C   -7.605581650691   -3.577069749134    0.043965770060
 O   -8.598618795941   -2.869385052069    0.107582759101
 N   -6.308167556083   -2.968198859479    0.035260185002
 H   -6.302406445657   -1.951102522975    0.083795170085
