25

 N    5.197401347808    4.986022276334    0.090482301928
 C    6.392441347808    5.698362276334    0.089272301928
 H    6.289561347808    6.782082276334    0.141762301928
 C    5.144601347808    3.623382276334    0.030532301928
 O    4.054341347808    3.002002276334    0.032882301928
 N    6.351631347808    3.000132276334   -0.031337698072
 H    6.345981347808    1.982862276334   -0.076067698072
 C    7.649061347808    3.608992276334   -0.039547698072
 O    8.642231347808    2.901082276334   -0.098377698072
 C    7.595031347808    5.066552276334    0.027432301928
 H    8.529411347808    5.624762276334    0.027242301928
 H    4.307211347808    5.469642276334    0.137612301928
LI    2.613071347808    1.934842276334    0.020942301928
 O   -4.218027534694   -3.123110420558   -0.035648982604
 C   -5.308293738752   -3.744490488493   -0.033298756876
 N   -5.361249945505   -5.106882602603   -0.098519673591
 H   -4.471176278586   -5.590311403674   -0.149571124629
 C   -6.556282767061   -5.819214177502   -0.097426190262
 H   -6.453542184231   -6.902722386889   -0.154427527357
 C   -7.758727494830   -5.187647712982   -0.030367302308
 H   -8.693115719594   -5.745857798662   -0.030264504450
 C   -7.812589115086   -3.730362325113    0.042504051238
 O   -8.805618677459   -3.022689967930    0.106376163552
 N   -6.515175752923   -3.121490249242    0.033772311893
 H   -6.509408650802   -2.104403657609    0.082510372509
