25

 N    5.236364001258    5.014871892312    0.090798203453
 C    6.431404001258    5.727211892312    0.089588203453
 H    6.328524001258    6.810931892312    0.142078203453
 C    5.183564001258    3.652231892312    0.030848203453
 O    4.093304001258    3.030851892312    0.033198203453
 N    6.390594001258    3.028981892312   -0.031021796547
 H    6.384944001258    2.011711892312   -0.075751796547
 C    7.688024001258    3.637841892312   -0.039231796547
 O    8.681194001258    2.929931892312   -0.098061796547
 C    7.633994001258    5.095401892312    0.027748203453
 H    8.568374001258    5.653611892312    0.027558203453
 H    4.346174001258    5.498491892312    0.137928203453
LI    2.652034001258    1.963691892312    0.021258203453
 O   -4.259430750449   -3.153766130426   -0.035998860897
 C   -5.349696954508   -3.775146198361   -0.033648635168
 N   -5.402654720711   -5.137535772116   -0.098921330250
 H   -4.512582225582   -5.620962662817   -0.150011286810
 C   -6.597687577739   -5.849867289369   -0.097829061166
 H   -6.494948348839   -6.933373291056   -0.154874786279
 C   -7.800130766580   -5.218303331447   -0.030718990655
 H   -8.734519035847   -5.776513342818   -0.030617190508
 C   -7.853990649900   -3.761020772448    0.042210195586
 O   -8.847018737579   -3.053350815517    0.106131809599
 N   -6.556577430201   -3.152148465806    0.033473381509
 H   -6.550809162814   -2.135063769702    0.082250844977
