25

 N    5.275326656591    5.043721505245    0.091114173098
 C    6.470366656591    5.756061505245    0.089904173098
 H    6.367486656591    6.839781505245    0.142394173098
 C    5.222526656591    3.681081505245    0.031164173098
 O    4.132266656591    3.059701505245    0.033514173098
 N    6.429556656591    3.057831505245   -0.030705826902
 H    6.423906656591    2.040561505245   -0.075435826902
 C    7.726986656591    3.666691505245   -0.038915826902
 O    8.720156656591    2.958781505245   -0.097745826902
 C    7.672956656591    5.124251505245    0.028064173098
 H    8.607336656591    5.682461505245    0.027874173098
 H    4.385136656591    5.527341505245    0.138244173098
LI    2.690996656591    1.992541505245    0.021574173098
 O   -4.300833964322   -3.184421843339   -0.036348671070
 C   -5.391100168381   -3.805801911274   -0.033998445341
 N   -5.444059479731   -5.168188967833   -0.099322406187
 H   -4.553988145634   -5.651613965598   -0.150450487065
 C   -6.639092371907   -5.880520427964   -0.098231339326
 H   -6.536354484503   -6.964024242101   -0.155321013016
 C   -7.841534035935   -5.248958953792   -0.031070592962
 H   -8.775922349284   -5.807168891550   -0.030969780648
 C   -7.895392198248   -3.791679197879    0.041915853434
 O   -8.888418824748   -3.084011619339    0.105886479082
 N   -6.597979119712   -3.182806662556    0.033174014864
 H   -6.592209697733   -2.165723844729    0.081990491098
