25

 N    5.431177296234    5.159119927348    0.092378713037
 C    6.626217296234    5.871459927348    0.091168713037
 H    6.523337296234    6.955179927348    0.143658713037
 C    5.378377296234    3.796479927348    0.032428713037
 O    4.288117296234    3.175099927348    0.034778713037
 N    6.585407296234    3.173229927348   -0.029441286963
 H    6.579757296234    2.155959927348   -0.074171286963
 C    7.882837296234    3.782089927348   -0.037651286963
 O    8.876007296234    3.074179927348   -0.096481286963
 C    7.828807296234    5.239649927348    0.029328713037
 H    8.763187296234    5.797859927348    0.029138713037
 H    4.540987296234    5.642739927348    0.139508713037
LI    2.846847296234    2.107939927348    0.022838713037
 O   -4.466446801503   -3.307044724620   -0.037747250403
 C   -5.556713005562   -3.928424792554   -0.035397024674
 N   -5.609678358293   -5.290802005758   -0.100921071822
 H   -4.719611563640   -5.774219601453   -0.152197948950
 C   -6.804711387900   -6.003133242500   -0.099834697150
 H   -6.701978745508   -7.086628502564   -0.157095898717
 C   -8.007147090030   -5.371581480932   -0.032476166857
 H   -8.941535575642   -5.929791131023   -0.032379209964
 C   -8.060998523329   -3.914312686398    0.040733761494
 O   -9.054019436644   -3.206654408643    0.104895675773
 N   -6.763585996804   -3.305439256695    0.031972312707
 H   -6.757812060328   -2.288363784051    0.080941052768
