25

 N    5.625990635190    5.303367891203    0.093960805506
 C    6.821030635190    6.015707891203    0.092750805506
 H    6.718150635190    7.099427891203    0.145240805506
 C    5.573190635190    3.940727891203    0.034010805506
 O    4.482930635190    3.319347891203    0.036360805506
 N    6.780220635190    3.317477891203   -0.027859194494
 H    6.774570635190    2.300207891203   -0.072589194494
 C    8.077650635190    3.926337891203   -0.036069194494
 O    9.070820635190    3.218427891203   -0.094899194494
 C    8.023620635190    5.383897891203    0.030910805506
 H    8.958000635190    5.942107891203    0.030720805506
 H    4.735800635190    5.786987891203    0.141090805506
LI    3.041660635190    2.252187891203    0.024420805506
 O   -4.673462808577   -3.460323389993   -0.039494057024
 C   -5.763729012635   -4.081703457928   -0.037143831296
 N   -5.816701617600   -5.444068852076   -0.102907319257
 H   -4.926640272042   -5.927477560334   -0.154362259004
 C   -7.011734812198   -6.156399820563   -0.101826559671
 H   -6.909008465812   -7.239884810098   -0.159293026506
 C   -8.214163357472   -5.524859721124   -0.034231343781
 H   -9.148552049665   -6.083069026201   -0.034139000598
 C   -8.268006713017   -4.067604088202    0.039246022681
 O   -9.261020767839   -3.359956978468    0.103636849737
 N   -6.970594849289   -3.458729584323    0.030461106570
 H   -6.964815493181   -2.441662931725    0.079612058915
