25

 N    5.664953308006    5.332217475840    0.094277404092
 C    6.859993308006    6.044557475840    0.093067404092
 H    6.757113308006    7.128277475840    0.145557404092
 C    5.612153308006    3.969577475840    0.034327404092
 O    4.521893308006    3.348197475840    0.036677404092
 N    6.819183308006    3.346327475840   -0.027542595908
 H    6.813533308006    2.329057475840   -0.072272595908
 C    8.116613308006    3.955187475840   -0.035752595908
 O    9.109783308006    3.247277475840   -0.094582595908
 C    8.062583308006    5.412747475840    0.031227404092
 H    8.996963308006    5.970957475840    0.031037404092
 H    4.774763308006    5.815837475840    0.141407404092
LI    3.080623308006    2.281037475840    0.024737404092
 O   -4.714866004967   -3.490979131202   -0.039843238256
 C   -5.805132209025   -4.112359199137   -0.037493012528
 N   -5.858106226246   -5.474722291358   -0.103303033457
 H   -4.968045941790   -5.958129268703   -0.154792577919
 C   -7.053139452977   -6.187053207594   -0.102223365107
 H   -6.950414332606   -7.270536196857   -0.159729723225
 C   -8.255566604562   -5.555515379529   -0.034582151700
 H   -9.189955336957   -6.113724617459   -0.034490705142
 C   -8.309408387084   -4.098262310034    0.038947188731
 O   -9.302421106296   -3.390617375485    0.103382502737
 N   -7.011996652445   -3.489387596908    0.030157711973
 H   -7.006216240912   -2.472322662212    0.079344075489
