25

 N    5.742878658488    5.389916637257    0.094910774623
 C    6.937918658488    6.102256637257    0.093700774623
 H    6.835038658488    7.185976637257    0.146190774623
 C    5.690078658488    4.027276637257    0.034960774623
 O    4.599818658488    3.405896637257    0.037310774623
 N    6.897108658488    3.404026637257   -0.026909225377
 H    6.891458658488    2.386756637257   -0.071639225377
 C    8.194538658488    4.012886637257   -0.035119225377
 O    9.187708658488    3.304976637257   -0.093949225377
 C    8.140508658488    5.470446637257    0.031860774623
 H    9.074888658488    6.028656637257    0.031670774623
 H    4.852688658488    5.873536637257    0.142040774623
LI    3.158548658488    2.338736637257    0.025370774623
 O   -4.797672392896   -3.552290621477   -0.040541427361
 C   -5.887938596955   -4.173670689412   -0.038191201633
 N   -5.940915401820   -5.536029237531   -0.104092983955
 H   -5.050857211846   -6.019432798021   -0.155650767711
 C   -7.135948691976   -6.248360050620   -0.103015467487
 H   -7.033225991600   -7.331839091317   -0.160600489822
 C   -8.338373092566   -5.616826706347   -0.035283548572
 H   -9.272761904290   -6.175035811775   -0.035193870126
 C   -8.392211770100   -4.159578697180    0.038348282717
 O   -9.385221852930   -3.451938056591    0.102871323446
 N   -7.094800290285   -3.550703570958    0.029549812522
 H   -7.089017795417   -2.533642027543    0.078806005638
