9

 C   -2.191381653218   -0.490755920998   -0.707814093836
 H   -3.170308653218    0.001032079002   -0.707814093836
 H   -2.084235653218   -1.130564920998    0.180457906164
 H   -2.084235653218   -1.130564920998   -1.596086093836
 C   -1.106754653218    0.554828079002   -0.707814093836
 O   -1.267858653218    1.764379079002   -0.707814093836
 O    0.135531346782   -0.022179920998   -0.707814093836
 H    0.770067346782    0.716383079002   -0.707814093836
CS    0.483872003119   -0.203749341941    0.319654315664
