9

 C   -2.213197004401   -0.479384866227   -0.772160829639
 H   -3.192124004401    0.012403133773   -0.772160829639
 H   -2.106051004401   -1.119193866227    0.116111170361
 H   -2.106051004401   -1.119193866227   -1.660432829639
 C   -1.128570004401    0.566199133773   -0.772160829639
 O   -1.289674004401    1.775750133773   -0.772160829639
 O    0.113715995599   -0.010808866227   -0.772160829639
 H    0.748251995599    0.727754133773   -0.772160829639
CS    0.493723984330   -0.208884598166    0.348713798907
