9

 C   -2.300458409134   -0.433900647145   -1.029547772852
 H   -3.279385409134    0.057887352855   -1.029547772852
 H   -2.193312409134   -1.073709647145   -0.141275772852
 H   -2.193312409134   -1.073709647145   -1.917819772852
 C   -1.215831409134    0.611683352855   -1.029547772852
 O   -1.376935409134    1.821234352855   -1.029547772852
 O    0.026454590866    0.034675352855   -1.029547772852
 H    0.660990590866    0.773238352855   -1.029547772852
CS    0.533131909175   -0.229425623063    0.464951731875
