9

 C   -2.322273760317   -0.422529592374   -1.093894508655
 H   -3.301200760317    0.069258407626   -1.093894508655
 H   -2.215127760317   -1.062338592374   -0.205622508655
 H   -2.215127760317   -1.062338592374   -1.982166508655
 C   -1.237646760317    0.623054407626   -1.093894508655
 O   -1.398750760317    1.832605407626   -1.093894508655
 O    0.004639239683    0.046046407626   -1.093894508655
 H    0.639175239683    0.784609407626   -1.093894508655
CS    0.542983890386   -0.234560879288    0.494011215118
