9

 C   -2.344089111500   -0.411158537604   -1.158241244459
 H   -3.323016111500    0.080629462396   -1.158241244459
 H   -2.236943111500   -1.050967537604   -0.269969244459
 H   -2.236943111500   -1.050967537604   -2.046513244459
 C   -1.259462111500    0.634425462396   -1.158241244459
 O   -1.420566111500    1.843976462396   -1.158241244459
 O   -0.017176111500    0.057417462396   -1.158241244459
 H    0.617359888500    0.795980462396   -1.158241244459
CS    0.552835871597   -0.239696135512    0.523070698360
