9

 C   -2.474981218599   -0.342932208981   -1.544321659278
 H   -3.453908218599    0.148855791019   -1.544321659278
 H   -2.367835218599   -0.982741208981   -0.656049659278
 H   -2.367835218599   -0.982741208981   -2.432593659278
 C   -1.390354218599    0.702651791019   -1.544321659278
 O   -1.551458218599    1.912202791019   -1.544321659278
 O   -0.148068218599    0.125643791019   -1.544321659278
 H    0.486467781401    0.864206791019   -1.544321659278
CS    0.611947758864   -0.270507672858    0.697427597813
