9

 C   -2.496796569782   -0.331561154210   -1.608668395081
 H   -3.475723569782    0.160226845790   -1.608668395081
 H   -2.389650569782   -0.971370154210   -0.720396395081
 H   -2.389650569782   -0.971370154210   -2.496940395081
 C   -1.412169569782    0.714022845790   -1.608668395081
 O   -1.573273569782    1.923573845790   -1.608668395081
 O   -0.169883569782    0.137014845790   -1.608668395081
 H    0.464652430218    0.875577845790   -1.608668395081
CS    0.621799740075   -0.275642929082    0.726487081055
