9

 C   -2.584057974515   -0.286076935128   -1.866055338294
 H   -3.562984974515    0.205711064872   -1.866055338294
 H   -2.476911974515   -0.925885935128   -0.977783338294
 H   -2.476911974515   -0.925885935128   -2.754327338294
 C   -1.499430974515    0.759507064872   -1.866055338294
 O   -1.660534974515    1.969058064872   -1.866055338294
 O   -0.257144974515    0.182499064872   -1.866055338294
 H    0.377391025485    0.921062064872   -1.866055338294
CS    0.661207664919   -0.296183953980    0.842725014024
