9

 C   -2.605873325698   -0.274705880357   -1.930402074098
 H   -3.584800325698    0.217082119643   -1.930402074098
 H   -2.498727325698   -0.914514880357   -1.042130074098
 H   -2.498727325698   -0.914514880357   -2.818674074098
 C   -1.521246325698    0.770878119643   -1.930402074098
 O   -1.682350325698    1.980429119643   -1.930402074098
 O   -0.278960325698    0.193870119643   -1.930402074098
 H    0.355575674302    0.932433119643   -1.930402074098
CS    0.671059646131   -0.301319210204    0.871784497266
