9

 C   -2.671319379248   -0.240592716046   -2.123442281507
 H   -3.650246379248    0.251195283954   -2.123442281507
 H   -2.564173379248   -0.880401716046   -1.235170281507
 H   -2.564173379248   -0.880401716046   -3.011714281507
 C   -1.586692379248    0.804991283954   -2.123442281507
 O   -1.747796379248    2.014542283954   -2.123442281507
 O   -0.344406379248    0.227983283954   -2.123442281507
 H    0.290129620752    0.966546283954   -2.123442281507
CS    0.700615589764   -0.316724978877    0.958962946993
