9

 C   -2.714950081614   -0.217850606505   -2.252135753114
 H   -3.693877081614    0.273937393495   -2.252135753114
 H   -2.607804081614   -0.857659606505   -1.363863753114
 H   -2.607804081614   -0.857659606505   -3.140407753114
 C   -1.630323081614    0.827733393495   -2.252135753114
 O   -1.791427081614    2.037284393495   -2.252135753114
 O   -0.388037081614    0.250725393495   -2.252135753114
 H    0.246498918386    0.989288393495   -2.252135753114
CS    0.720319552186   -0.326995491326    1.017081913477
