9

 C   -2.758580783980   -0.195108496964   -2.380829224720
 H   -3.737507783980    0.296679503036   -2.380829224720
 H   -2.651434783980   -0.834917496964   -1.492557224720
 H   -2.651434783980   -0.834917496964   -3.269101224720
 C   -1.673953783980    0.850475503036   -2.380829224720
 O   -1.835057783980    2.060026503036   -2.380829224720
 O   -0.431667783980    0.273467503036   -2.380829224720
 H    0.202868216020    1.012030503036   -2.380829224720
CS    0.740023514608   -0.337266003775    1.075200879962
