9

 C   -2.780396135163   -0.183737442193   -2.445175960524
 H   -3.759323135163    0.308050557807   -2.445175960524
 H   -2.673250135163   -0.823546442193   -1.556903960524
 H   -2.673250135163   -0.823546442193   -3.333447960524
 C   -1.695769135163    0.861846557807   -2.445175960524
 O   -1.856873135163    2.071397557807   -2.445175960524
 O   -0.453483135163    0.284838557807   -2.445175960524
 H    0.181052864837    1.023401557807   -2.445175960524
CS    0.749875495819   -0.342401259999    1.104260363204
