9

 C   -2.802211486347   -0.172366387423   -2.509522696327
 H   -3.781138486347    0.319421612577   -2.509522696327
 H   -2.695065486347   -0.812175387423   -1.621250696327
 H   -2.695065486347   -0.812175387423   -3.397794696327
 C   -1.717584486347    0.873217612577   -2.509522696327
 O   -1.878688486347    2.082768612577   -2.509522696327
 O   -0.475298486347    0.296209612577   -2.509522696327
 H    0.159237513653    1.034772612577   -2.509522696327
CS    0.759727477031   -0.347536516223    1.133319846446
