9

 C   -2.998549646995   -0.070026894488   -3.088643318556
 H   -3.977476646995    0.421761105512   -3.088643318556
 H   -2.891403646995   -0.709835894488   -2.200371318556
 H   -2.891403646995   -0.709835894488   -3.976915318556
 C   -1.913922646995    0.975557105512   -3.088643318556
 O   -2.075026646995    2.185108105512   -3.088643318556
 O   -0.671636646995    0.398549105512   -3.088643318556
 H   -0.037100646995    1.137112105512   -3.088643318556
CS    0.848395307931   -0.393753822243    1.394855195626
