9

 C   -3.042180349361   -0.047284784947   -3.217336790163
 H   -4.021107349361    0.444503215053   -3.217336790163
 H   -2.935034349361   -0.687093784947   -2.329064790163
 H   -2.935034349361   -0.687093784947   -4.105608790163
 C   -1.957553349361    0.998299215053   -3.217336790163
 O   -2.118657349361    2.207850215053   -3.217336790163
 O   -0.715267349361    0.421291215053   -3.217336790163
 H   -0.080731349361    1.159854215053   -3.217336790163
CS    0.868099270353   -0.404024334691    1.452974162111
