9

 C   -3.063995700545   -0.035913730176   -3.281683525966
 H   -4.042922700545    0.455874269824   -3.281683525966
 H   -2.956849700545   -0.675722730176   -2.393411525966
 H   -2.956849700545   -0.675722730176   -4.169955525966
 C   -1.979368700545    1.009670269824   -3.281683525966
 O   -2.140472700545    2.219221269824   -3.281683525966
 O   -0.737082700545    0.432662269824   -3.281683525966
 H   -0.102546700545    1.171225269824   -3.281683525966
CS    0.877951251564   -0.409159590916    1.482033645353
