9

 C   -3.173072456460    0.020941543676   -3.603417204982
 H   -4.151999456460    0.512729543676   -3.603417204982
 H   -3.065926456460   -0.618867456324   -2.715145204982
 H   -3.065926456460   -0.618867456324   -4.491689204982
 C   -2.088445456460    1.066525543676   -3.603417204982
 O   -2.249549456460    2.276076543676   -3.603417204982
 O   -0.846159456460    0.489517543676   -3.603417204982
 H   -0.211623456460    1.228080543676   -3.603417204982
CS    0.927211157620   -0.434835872037    1.627331061564
