9

 C   -3.238518510010    0.055054707988   -3.796457412392
 H   -4.217445510010    0.546842707988   -3.796457412392
 H   -3.131372510010   -0.584754292012   -2.908185412392
 H   -3.131372510010   -0.584754292012   -4.684729412392
 C   -2.153891510010    1.100638707988   -3.796457412392
 O   -2.314995510010    2.310189707988   -3.796457412392
 O   -0.911605510010    0.523630707988   -3.796457412392
 H   -0.277069510010    1.262193707988   -3.796457412392
CS    0.956767101253   -0.450241640711    1.714509511291
