9

 C   -3.303964563559    0.089167872300   -3.989497619802
 H   -4.282891563559    0.580955872300   -3.989497619802
 H   -3.196818563559   -0.550641127700   -3.101225619802
 H   -3.196818563559   -0.550641127700   -4.877769619802
 C   -2.219337563559    1.134751872300   -3.989497619802
 O   -2.380441563559    2.344302872300   -3.989497619802
 O   -0.977051563559    0.557743872300   -3.989497619802
 H   -0.342515563559    1.296306872300   -3.989497619802
CS    0.986323044886   -0.465647409384    1.801687961017
