9

 C   -3.369410617109    0.123281036611   -4.182537827211
 H   -4.348337617109    0.615069036611   -4.182537827211
 H   -3.262264617109   -0.516527963389   -3.294265827211
 H   -3.262264617109   -0.516527963389   -5.070809827211
 C   -2.284783617109    1.168865036611   -4.182537827211
 O   -2.445887617109    2.378416036611   -4.182537827211
 O   -1.042497617109    0.591857036611   -4.182537827211
 H   -0.407961617109    1.330420036611   -4.182537827211
CS    1.015878988520   -0.481053178057    1.888866410744
