9

 C   -3.434856670658    0.157394200923   -4.375578034621
 H   -4.413783670658    0.649182200923   -4.375578034621
 H   -3.327710670658   -0.482414799077   -3.487306034621
 H   -3.327710670658   -0.482414799077   -5.263850034621
 C   -2.350229670658    1.202978200923   -4.375578034621
 O   -2.511333670658    2.412529200923   -4.375578034621
 O   -1.107943670658    0.625970200923   -4.375578034621
 H   -0.473407670658    1.364533200923   -4.375578034621
CS    1.045434932153   -0.496458946730    1.976044860471
