9

 C   -3.456672021842    0.168765255693   -4.439924770425
 H   -4.435599021842    0.660553255693   -4.439924770425
 H   -3.349526021842   -0.471043744307   -3.551652770425
 H   -3.349526021842   -0.471043744307   -5.328196770425
 C   -2.372045021842    1.214349255693   -4.439924770425
 O   -2.533149021842    2.423900255693   -4.439924770425
 O   -1.129759021842    0.637341255693   -4.439924770425
 H   -0.495223021842    1.375904255693   -4.439924770425
CS    1.055286913364   -0.501594202954    2.005104343713
