9

 C   -3.478487373025    0.180136310464   -4.504271506228
 H   -4.457414373025    0.671924310464   -4.504271506228
 H   -3.371341373025   -0.459672689536   -3.615999506228
 H   -3.371341373025   -0.459672689536   -5.392543506228
 C   -2.393860373025    1.225720310464   -4.504271506228
 O   -2.554964373025    2.435271310464   -4.504271506228
 O   -1.151574373025    0.648712310464   -4.504271506228
 H   -0.517038373025    1.387275310464   -4.504271506228
CS    1.065138894575   -0.506729459178    2.034163826955
