9

 C   -3.543933426574    0.214249474776   -4.697311713638
 H   -4.522860426574    0.706037474776   -4.697311713638
 H   -3.436787426574   -0.425559525224   -3.809039713638
 H   -3.436787426574   -0.425559525224   -5.585583713638
 C   -2.459306426574    1.259833474776   -4.697311713638
 O   -2.620410426574    2.469384474776   -4.697311713638
 O   -1.217020426574    0.682825474776   -4.697311713638
 H   -0.582484426574    1.421388474776   -4.697311713638
CS    1.094694838209   -0.522135227851    2.121342276682
