9

 C   -3.587564128941    0.236991584317   -4.826005185244
 H   -4.566491128941    0.728779584317   -4.826005185244
 H   -3.480418128941   -0.402817415683   -3.937733185244
 H   -3.480418128941   -0.402817415683   -5.714277185244
 C   -2.502937128941    1.282575584317   -4.826005185244
 O   -2.664041128941    2.492126584317   -4.826005185244
 O   -1.260651128941    0.705567584317   -4.826005185244
 H   -0.626115128941    1.444130584317   -4.826005185244
CS    1.114398800631   -0.532405740300    2.179461243166
