9

 C   -3.609379480124    0.248362639087   -4.890351921047
 H   -4.588306480124    0.740150639087   -4.890351921047
 H   -3.502233480124   -0.391446360913   -4.002079921047
 H   -3.502233480124   -0.391446360913   -5.778623921047
 C   -2.524752480124    1.293946639087   -4.890351921047
 O   -2.685856480124    2.503497639087   -4.890351921047
 O   -1.282466480124    0.716938639087   -4.890351921047
 H   -0.647930480124    1.455501639087   -4.890351921047
CS    1.124250781842   -0.537540996525    2.208520726408
