9

 C   -3.653010182490    0.271104748628   -5.019045392654
 H   -4.631937182490    0.762892748628   -5.019045392654
 H   -3.545864182490   -0.368704251372   -4.130773392654
 H   -3.545864182490   -0.368704251372   -5.907317392654
 C   -2.568383182490    1.316688748628   -5.019045392654
 O   -2.729487182490    2.526239748628   -5.019045392654
 O   -1.326097182490    0.739680748628   -5.019045392654
 H   -0.691561182490    1.478243748628   -5.019045392654
CS    1.143954744264   -0.547811508973    2.266639692893
