9

 C   -3.674825533673    0.282475803399   -5.083392128457
 H   -4.653752533673    0.774263803399   -5.083392128457
 H   -3.567679533673   -0.357333196601   -4.195120128457
 H   -3.567679533673   -0.357333196601   -5.971664128457
 C   -2.590198533673    1.328059803399   -5.083392128457
 O   -2.751302533673    2.537610803399   -5.083392128457
 O   -1.347912533673    0.751051803399   -5.083392128457
 H   -0.713376533673    1.489614803399   -5.083392128457
CS    1.153806725475   -0.552946765198    2.295699176135
