9

 C   -3.696640884857    0.293846858169   -5.147738864260
 H   -4.675567884857    0.785634858169   -5.147738864260
 H   -3.589494884857   -0.345962141831   -4.259466864260
 H   -3.589494884857   -0.345962141831   -6.036010864260
 C   -2.612013884857    1.339430858169   -5.147738864260
 O   -2.773117884857    2.548981858169   -5.147738864260
 O   -1.369727884857    0.762422858169   -5.147738864260
 H   -0.735191884857    1.500985858169   -5.147738864260
CS    1.163658706686   -0.558082021422    2.324758659377
