9

 C   -3.740271587223    0.316588967710   -5.276432335867
 H   -4.719198587223    0.808376967710   -5.276432335867
 H   -3.633125587223   -0.323220032290   -4.388160335867
 H   -3.633125587223   -0.323220032290   -6.164704335867
 C   -2.655644587223    1.362172967710   -5.276432335867
 O   -2.816748587223    2.571723967710   -5.276432335867
 O   -1.413358587223    0.785164967710   -5.276432335867
 H   -0.778822587223    1.523727967710   -5.276432335867
CS    1.183362669109   -0.568352533871    2.382877625861
