9

 C   -3.762086938406    0.327960022481   -5.340779071670
 H   -4.741013938406    0.819748022481   -5.340779071670
 H   -3.654940938406   -0.311848977519   -4.452507071670
 H   -3.654940938406   -0.311848977519   -6.229051071670
 C   -2.677459938406    1.373544022481   -5.340779071670
 O   -2.838563938406    2.583095022481   -5.340779071670
 O   -1.435173938406    0.796536022481   -5.340779071670
 H   -0.800637938406    1.535099022481   -5.340779071670
CS    1.193214650320   -0.573487790095    2.411937109104
