9

 C   -3.871163694322    0.384815296334   -5.662512750686
 H   -4.850090694322    0.876603296334   -5.662512750686
 H   -3.764017694322   -0.254993703666   -4.774240750686
 H   -3.764017694322   -0.254993703666   -6.550784750686
 C   -2.786536694322    1.430399296334   -5.662512750686
 O   -2.947640694322    2.639950296334   -5.662512750686
 O   -1.544250694322    0.853391296334   -5.662512750686
 H   -0.909714694322    1.591954296334   -5.662512750686
CS    1.242474556375   -0.599164071217    2.557234525315
