9

 C   -3.914794396688    0.407557405875   -5.791206222293
 H   -4.893721396688    0.899345405875   -5.791206222293
 H   -3.807648396688   -0.232251594125   -4.902934222293
 H   -3.807648396688   -0.232251594125   -6.679478222293
 C   -2.830167396688    1.453141405875   -5.791206222293
 O   -2.991271396688    2.662692405875   -5.791206222293
 O   -1.587881396688    0.876133405875   -5.791206222293
 H   -0.953345396688    1.614696405875   -5.791206222293
CS    1.262178518798   -0.609434583666    2.615353491799
