9

 C   -3.936609747871    0.418928460645   -5.855552958096
 H   -4.915536747871    0.910716460645   -5.855552958096
 H   -3.829463747871   -0.220880539355   -4.967280958096
 H   -3.829463747871   -0.220880539355   -6.743824958096
 C   -2.851982747871    1.464512460645   -5.855552958096
 O   -3.013086747871    2.674063460645   -5.855552958096
 O   -1.609696747871    0.887504460645   -5.855552958096
 H   -0.975160747871    1.626067460645   -5.855552958096
CS    1.272030500009   -0.614569839890    2.644412975041
