9

 C   -3.958425099055    0.430299515416   -5.919899693899
 H   -4.937352099055    0.922087515416   -5.919899693899
 H   -3.851279099055   -0.209509484584   -5.031627693899
 H   -3.851279099055   -0.209509484584   -6.808171693899
 C   -2.873798099055    1.475883515416   -5.919899693899
 O   -3.034902099055    2.685434515416   -5.919899693899
 O   -1.631512099055    0.898875515416   -5.919899693899
 H   -0.996976099055    1.637438515416   -5.919899693899
CS    1.281882481220   -0.619705096114    2.673472458284
