9

 C   -4.002055801421    0.453041624957   -6.048593165506
 H   -4.980982801421    0.944829624957   -6.048593165506
 H   -3.894909801421   -0.186767375043   -5.160321165506
 H   -3.894909801421   -0.186767375043   -6.936865165506
 C   -2.917428801421    1.498625624957   -6.048593165506
 O   -3.078532801421    2.708176624957   -6.048593165506
 O   -1.675142801421    0.921617624957   -6.048593165506
 H   -1.040606801421    1.660180624957   -6.048593165506
CS    1.301586443642   -0.629975608563    2.731591424768
