9

 C   -4.023871152604    0.464412679727   -6.112939901309
 H   -5.002798152604    0.956200679727   -6.112939901309
 H   -3.916725152604   -0.175396320273   -5.224667901309
 H   -3.916725152604   -0.175396320273   -7.001211901309
 C   -2.939244152604    1.509996679727   -6.112939901309
 O   -3.100348152604    2.719547679727   -6.112939901309
 O   -1.696958152604    0.932988679727   -6.112939901309
 H   -1.062422152604    1.671551679727   -6.112939901309
CS    1.311438424853   -0.635110864787    2.760650908010
