9

 C   -4.045686503787    0.475783734498   -6.177286637112
 H   -5.024613503787    0.967571734498   -6.177286637112
 H   -3.938540503787   -0.164025265502   -5.289014637112
 H   -3.938540503787   -0.164025265502   -7.065558637112
 C   -2.961059503787    1.521367734498   -6.177286637112
 O   -3.122163503787    2.730918734498   -6.177286637112
 O   -1.718773503787    0.944359734498   -6.177286637112
 H   -1.084237503787    1.682922734498   -6.177286637112
CS    1.321290406064   -0.640246121012    2.789710391252
