9

 C   -4.067501854970    0.487154789268   -6.241633372916
 H   -5.046428854970    0.978942789268   -6.241633372916
 H   -3.960355854970   -0.152654210732   -5.353361372916
 H   -3.960355854970   -0.152654210732   -7.129905372916
 C   -2.982874854970    1.532738789268   -6.241633372916
 O   -3.143978854970    2.742289789268   -6.241633372916
 O   -1.740588854970    0.955730789268   -6.241633372916
 H   -1.106052854970    1.694293789268   -6.241633372916
CS    1.331142387275   -0.645381377236    2.818769874495
