9

 C   -4.089317206154    0.498525844039   -6.305980108719
 H   -5.068244206154    0.990313844039   -6.305980108719
 H   -3.982171206154   -0.141283155961   -5.417708108719
 H   -3.982171206154   -0.141283155961   -7.194252108719
 C   -3.004690206154    1.544109844039   -6.305980108719
 O   -3.165794206154    2.753660844039   -6.305980108719
 O   -1.762404206154    0.967101844039   -6.305980108719
 H   -1.127868206154    1.705664844039   -6.305980108719
CS    1.340994368486   -0.650516633460    2.847829357737
