17

 N   -1.969025367321   -2.221077453077   -0.002675740355
 C   -0.758837300477   -1.565871249401    0.001285883613
 N    0.474575113826   -2.164548943863    0.013324168518
 C    1.444998313882   -1.274372802252    0.001451711545
 N    1.241921476469    0.087265331262   -0.005383448797
 H    2.045748601720    0.707225871017   -0.087371471219
 N    2.770453068119   -1.693047523932   -0.076895591690
 H    3.424989273451   -1.161244299532    0.490745185040
 H    2.849258155510   -2.693747667867    0.084687746299
 C   -0.017352265848    0.773299034793    0.007570337880
 O   -0.044932634953    2.001472119570    0.003482209452
 C   -1.090137391824   -0.200394354481    0.013771535820
 N   -2.461210693593   -0.014063309168    0.013696351104
 C   -2.954734188104   -1.252666323213    0.003366251439
 H   -4.012232101372   -1.506812945045    0.000419607013
 H   -2.094122363852   -3.227660538309   -0.011335291386
 K    0.980561733174    2.624639380574   -0.001403049167
