17

 N   -1.986549184599   -2.231726238244   -0.002592260249
 C   -0.776361117755   -1.576520034568    0.001369363719
 N    0.457051296548   -2.175197729030    0.013407648624
 C    1.427474496604   -1.285021587419    0.001535191651
 N    1.224397659191    0.076616546095   -0.005299968691
 H    2.028224784442    0.696577085850   -0.087287991113
 N    2.752929250841   -1.703696309099   -0.076812111584
 H    3.407465456173   -1.171893084699    0.490828665146
 H    2.831734338232   -2.704396453034    0.084771226405
 C   -0.034876083126    0.762650249626    0.007653817986
 O   -0.062456452231    1.990823334403    0.003565689558
 C   -1.107661209102   -0.211043139648    0.013855015926
 N   -2.478734510871   -0.024712094335    0.013779831210
 C   -2.972258005382   -1.263315108380    0.003449731545
 H   -4.029755918650   -1.517461730212    0.000503087119
 H   -2.111646181130   -3.238309323476   -0.011251811280
 K    1.048495779907    2.665921200492   -0.001726673945
