17

 N   -2.004073001876   -2.242375023410   -0.002508780142
 C   -0.793884935032   -1.587168819734    0.001452843826
 N    0.439527479271   -2.185846514196    0.013491128731
 C    1.409950679327   -1.295670372585    0.001618671758
 N    1.206873841914    0.065967760929   -0.005216488584
 H    2.010700967165    0.685928300684   -0.087204511006
 N    2.735405433564   -1.714345094265   -0.076728631477
 H    3.389941638896   -1.182541869865    0.490912145253
 H    2.814210520955   -2.715045238200    0.084854706512
 C   -0.052399900403    0.752001464460    0.007737298093
 O   -0.079980269508    1.980174549237    0.003649169665
 C   -1.125185026379   -0.221691924814    0.013938496033
 N   -2.496258328148   -0.035360879501    0.013863311317
 C   -2.989781822659   -1.273963893546    0.003533211652
 H   -4.047279735927   -1.528110515378    0.000586567226
 H   -2.129169998407   -3.248958108642   -0.011168331173
 K    1.116429826640    2.707203020409   -0.002050298723
