17

 N   -2.039120636432   -2.263672593743   -0.002341819928
 C   -0.828932569588   -1.608466390067    0.001619804040
 N    0.404479844715   -2.207144084529    0.013658088945
 C    1.374903044771   -1.316967942918    0.001785631972
 N    1.171826207358    0.044670190596   -0.005049528370
 H    1.975653332609    0.664630730351   -0.087037550792
 N    2.700357799008   -1.735642664598   -0.076561671263
 H    3.354894004340   -1.203839440198    0.491079105467
 H    2.779162886399   -2.736342808533    0.085021666726
 C   -0.087447534959    0.730703894127    0.007904258307
 O   -0.115027904064    1.958876978904    0.003816129879
 C   -1.160232660935   -0.242989495147    0.014105456247
 N   -2.531305962704   -0.056658449834    0.014030271531
 C   -3.024829457215   -1.295261463879    0.003700171866
 H   -4.082327370483   -1.549408085711    0.000753527440
 H   -2.164217632963   -3.270255678975   -0.011001370959
 K    1.252297920105    2.789766660244   -0.002697548279
