17

 N   -3.511121287778   -3.158170547712    0.004670509044
 C   -2.300933220934   -2.502964344036    0.008632133012
 N   -1.067520806631   -3.101642038498    0.020670417917
 C   -0.097097606575   -2.211465896887    0.008797960944
 N   -0.300174443988   -0.849827763373    0.001962800602
 H    0.503652681263   -0.229867223618   -0.080025221820
 N    1.228357147662   -2.630140618567   -0.069549342291
 H    1.882893352994   -2.098337394167    0.498091434439
 H    1.307162235053   -3.630840762502    0.092033995698
 C   -1.559448186305   -0.163794059842    0.014916587279
 O   -1.587028555410    1.064379024935    0.010828458851
 C   -2.632233312281   -1.137487449116    0.021117785219
 N   -4.003306614050   -0.951156403803    0.021042600503
 C   -4.496830108561   -2.189759417848    0.010712500838
 H   -5.554328021829   -2.443906039680    0.007765856412
 H   -3.636218284309   -4.164753632944   -0.003989041987
 K    6.958757845647    6.257439533308   -0.029882029637
