17

 N   -2.109215905544   -2.306267734408   -0.002007899501
 C   -0.899027838700   -1.651061530732    0.001953724467
 N    0.334384575603   -2.249739225194    0.013992009372
 C    1.304807775659   -1.359563083583    0.002119552399
 N    1.101730938246    0.002075049931   -0.004715607943
 H    1.905558063497    0.622035589686   -0.086703630365
 N    2.630262529896   -1.778237805263   -0.076227750836
 H    3.284798735228   -1.246434580863    0.491413025894
 H    2.709067617287   -2.778937949198    0.085355587153
 C   -0.157542804071    0.688108753462    0.008238178734
 O   -0.185123173176    1.916281838239    0.004150050306
 C   -1.230327930047   -0.285584635812    0.014439376674
 N   -2.601401231816   -0.099253590499    0.014364191958
 C   -3.094924726327   -1.337856604544    0.004034092293
 H   -4.152422639595   -1.592003226376    0.001087447867
 H   -2.234312902075   -3.312850819640   -0.010667450532
 K    1.524034107035    2.954893939914   -0.003992047392
