17

 N   -2.144263540100   -2.327565304740   -0.001840939287
 C   -0.934075473256   -1.672359101064    0.002120684681
 N    0.299336941047   -2.271036795526    0.014158969586
 C    1.269760141103   -1.380860653915    0.002286512613
 N    1.066683303690   -0.019222520401   -0.004548647729
 H    1.870510428941    0.600738019354   -0.086536670151
 N    2.595214895340   -1.799535375595   -0.076060790622
 H    3.249751100672   -1.267732151195    0.491579986108
 H    2.674019982731   -2.800235519530    0.085522547367
 C   -0.192590438627    0.666811183130    0.008405138948
 O   -0.220170807732    1.894984267907    0.004317010520
 C   -1.265375564603   -0.306882206144    0.014606336888
 N   -2.636448866372   -0.120551160831    0.014531152172
 C   -3.129972360883   -1.359154174876    0.004201052507
 H   -4.187470274151   -1.613300796708    0.001254408081
 H   -2.269360536631   -3.334148389972   -0.010500490318
 K    1.659902200501    3.037457579749   -0.004639296948
