17

 N   -2.196834991934   -2.359511660239   -0.001590498967
 C   -0.986646925090   -1.704305456563    0.002371125001
 N    0.246765489213   -2.302983151025    0.014409409906
 C    1.217188689269   -1.412807009414    0.002536952933
 N    1.014111851856   -0.051168875900   -0.004298207409
 H    1.817938977107    0.568791663855   -0.086286229831
 N    2.542643443506   -1.831481731094   -0.075810350302
 H    3.197179648838   -1.299678506694    0.491830426428
 H    2.621448530897   -2.832181875029    0.085772987687
 C   -0.245161890461    0.634864827631    0.008655579268
 O   -0.272742259566    1.863037912408    0.004567450840
 C   -1.317947016437   -0.338828561643    0.014856777208
 N   -2.689020318206   -0.152497516330    0.014781592492
 C   -3.182543812717   -1.391100530375    0.004451492827
 H   -4.240041725985   -1.645247152207    0.001504848401
 H   -2.321931988465   -3.366094745471   -0.010250049998
 K    1.863704340699    3.161303039501   -0.005610171282
