17

 N   -2.231882626490   -2.380809230572   -0.001423538753
 C   -1.021694559646   -1.725603026896    0.002538085215
 N    0.211717854657   -2.324280721358    0.014576370120
 C    1.182141054713   -1.434104579747    0.002703913147
 N    0.979064217300   -0.072466446233   -0.004131247195
 H    1.782891342551    0.547494093522   -0.086119269617
 N    2.507595808950   -1.852779301427   -0.075643390088
 H    3.162132014282   -1.320976077027    0.491997386642
 H    2.586400896341   -2.853479445362    0.085939947901
 C   -0.280209525017    0.613567257298    0.008822539482
 O   -0.307789894122    1.841740342075    0.004734411054
 C   -1.352994650993   -0.360126131976    0.015023737422
 N   -2.724067952762   -0.173795086663    0.014948552706
 C   -3.217591447273   -1.412398100708    0.004618453041
 H   -4.275089360541   -1.666544722540    0.001671808615
 H   -2.356979623021   -3.387392315804   -0.010083089784
 K    1.999572434164    3.243866679336   -0.006257420838
