17

 N   -2.249406443767   -2.391458015738   -0.001340058646
 C   -1.039218376923   -1.736251812062    0.002621565322
 N    0.194194037380   -2.334929506524    0.014659850227
 C    1.164617237436   -1.444753364913    0.002787393254
 N    0.961540400023   -0.083115231399   -0.004047767088
 H    1.765367525274    0.536845308356   -0.086035789510
 N    2.490071991673   -1.863428086593   -0.075559909981
 H    3.144608197005   -1.331624862193    0.492080866749
 H    2.568877079064   -2.864128230528    0.086023428008
 C   -0.297733342294    0.602918472132    0.008906019589
 O   -0.325313711399    1.831091556909    0.004817891161
 C   -1.370518468270   -0.370774917142    0.015107217529
 N   -2.741591770039   -0.184443871829    0.015032032813
 C   -3.235115264550   -1.423046885874    0.004701933148
 H   -4.292613177818   -1.677193507706    0.001755288722
 H   -2.374503440298   -3.398041100970   -0.009999609677
 K    2.067506480897    3.285148499253   -0.006581045616
