17

 N   -2.284454078323   -2.412755586071   -0.001173098433
 C   -1.074266011479   -1.757549382395    0.002788525535
 N    0.159146402824   -2.356227076857    0.014826810440
 C    1.129569602880   -1.466050935246    0.002954353467
 N    0.926492765467   -0.104412801732   -0.003880806875
 H    1.730319890718    0.515547738023   -0.085868829297
 N    2.455024357117   -1.884725656926   -0.075392949768
 H    3.109560562449   -1.352922432526    0.492247826962
 H    2.533829444508   -2.885425800861    0.086190388221
 C   -0.332780976850    0.581620901799    0.009072979802
 O   -0.360361345955    1.809793986576    0.004984851374
 C   -1.405566102826   -0.392072487475    0.015274177742
 N   -2.776639404595   -0.205741442162    0.015198993026
 C   -3.270162899106   -1.444344456207    0.004868893361
 H   -4.327660812374   -1.698491078039    0.001922248935
 H   -2.409551074854   -3.419338671303   -0.009832649464
 K    2.203374574362    3.367712139088   -0.007228295172
