17

 N   -2.301977895601   -2.423404371237   -0.001089618326
 C   -1.091789828757   -1.768198167561    0.002872005642
 N    0.141622585546   -2.366875862023    0.014910290547
 C    1.112045785602   -1.476699720412    0.003037833574
 N    0.908968948189   -0.115061586898   -0.003797326768
 H    1.712796073440    0.504898952857   -0.085785349190
 N    2.437500539839   -1.895374442092   -0.075309469661
 H    3.092036745171   -1.363571217692    0.492331307069
 H    2.516305627230   -2.896074586027    0.086273868328
 C   -0.350304794128    0.570972116633    0.009156459909
 O   -0.377885163233    1.799145201410    0.005068331481
 C   -1.423089920104   -0.402721272641    0.015357657849
 N   -2.794163221873   -0.216390227328    0.015282473133
 C   -3.287686716384   -1.454993241373    0.004952373468
 H   -4.345184629652   -1.709139863205    0.002005729042
 H   -2.427074892132   -3.429987456469   -0.009749169357
 K    2.271308621095    3.408993959006   -0.007551919950
