17

 N   -2.372073164713   -2.465999511902   -0.000755697899
 C   -1.161885097869   -1.810793308226    0.003205926069
 N    0.071527316434   -2.409471002688    0.015244210974
 C    1.041950516490   -1.519294861077    0.003371754001
 N    0.838873679077   -0.157656727563   -0.003463406341
 H    1.642700804328    0.462303812192   -0.085451428763
 N    2.367405270727   -1.937969582757   -0.074975549234
 H    3.021941476059   -1.406166358357    0.492665227496
 H    2.446210358118   -2.938669726692    0.086607788755
 C   -0.420400063240    0.528376975968    0.009490380336
 O   -0.447980432345    1.756550060745    0.005402251908
 C   -1.493185189216   -0.445316413306    0.015691578276
 N   -2.864258490985   -0.258985367993    0.015616393560
 C   -3.357781985496   -1.497588382038    0.005286293895
 H   -4.415279898764   -1.751735003870    0.002339649469
 H   -2.497170161244   -3.472582597134   -0.009415248930
 K    2.543044808025    3.574121238675   -0.008846419063
