17

 N   -2.389596981991   -2.476648297069   -0.000672217792
 C   -1.179408915147   -1.821442093393    0.003289406176
 N    0.054003499156   -2.420119787855    0.015327691081
 C    1.024426699212   -1.529943646244    0.003455234108
 N    0.821349861799   -0.168305512730   -0.003379926234
 H    1.625176987050    0.451655027025   -0.085367948656
 N    2.349881453449   -1.948618367924   -0.074892069127
 H    3.004417658781   -1.416815143524    0.492748707603
 H    2.428686540840   -2.949318511859    0.086691268862
 C   -0.437923880518    0.517728190801    0.009573860443
 O   -0.465504249623    1.745901275578    0.005485732015
 C   -1.510709006494   -0.455965198473    0.015775058383
 N   -2.881782308263   -0.269634153160    0.015699873667
 C   -3.375305802774   -1.508237167205    0.005369774002
 H   -4.432803716042   -1.762383789037    0.002423129576
 H   -2.514693978522   -3.483231382301   -0.009331768823
 K    2.610978854758    3.615403058593   -0.009170043841
