17

 N   -2.442168433825   -2.508594652568   -0.000421777471
 C   -1.231980366981   -1.853388448892    0.003539846497
 N    0.001432047322   -2.452066143354    0.015578131402
 C    0.971855247378   -1.561890001743    0.003705674429
 N    0.768778409965   -0.200251868229   -0.003129485913
 H    1.572605535216    0.419708671526   -0.085117508335
 N    2.297310001615   -1.980564723423   -0.074641628806
 H    2.951846206947   -1.448761499023    0.492999147924
 H    2.376115089006   -2.981264867358    0.086941709183
 C   -0.490495332352    0.485781835302    0.009824300764
 O   -0.518075701457    1.713954920079    0.005736172336
 C   -1.563280458328   -0.487911553972    0.016025498704
 N   -2.934353760097   -0.301580508659    0.015950313988
 C   -3.427877254608   -1.540183522704    0.005620214323
 H   -4.485375167876   -1.794330144536    0.002673569897
 H   -2.567265430356   -3.515177737800   -0.009081328502
 K    2.814780994956    3.739248518345   -0.010140918175
