17

 N   -2.459692251103   -2.519243437734   -0.000338297365
 C   -1.249504184259   -1.864037234058    0.003623326603
 N   -0.016091769956   -2.462714928520    0.015661611508
 C    0.954331430100   -1.572538786909    0.003789154535
 N    0.751254592687   -0.210900653395   -0.003046005807
 H    1.555081717938    0.409059886360   -0.085034028229
 N    2.279786184337   -1.991213508589   -0.074558148700
 H    2.934322389669   -1.459410284189    0.493082628030
 H    2.358591271728   -2.991913652524    0.087025189289
 C   -0.508019149630    0.475133050136    0.009907780870
 O   -0.535599518735    1.703306134913    0.005819652442
 C   -1.580804275606   -0.498560339138    0.016108978810
 N   -2.951877577375   -0.312229293825    0.016033794094
 C   -3.445401071886   -1.550832307870    0.005703694429
 H   -4.502898985154   -1.804978929702    0.002757050003
 H   -2.584789247634   -3.525826522966   -0.008997848396
 K    2.882715041688    3.780530338262   -0.010464542953
