17

 N   -2.494739885658   -2.540541008066   -0.000171337151
 C   -1.284551818814   -1.885334804390    0.003790286817
 N   -0.051139404511   -2.484012498852    0.015828571722
 C    0.919283795545   -1.593836357241    0.003956114749
 N    0.716206958132   -0.232198223727   -0.002879045593
 H    1.520034083383    0.387762316028   -0.084867068015
 N    2.244738549782   -2.012511078921   -0.074391188486
 H    2.899274755114   -1.480707854521    0.493249588244
 H    2.323543637173   -3.013211222856    0.087192149503
 C   -0.543066784185    0.453835479804    0.010074741084
 O   -0.570647153290    1.682008564581    0.005986612656
 C   -1.615851910161   -0.519857909470    0.016275939024
 N   -2.986925211930   -0.333526864157    0.016200754308
 C   -3.480448706441   -1.572129878202    0.005870654643
 H   -4.537946619709   -1.826276500034    0.002924010217
 H   -2.619836882189   -3.547124093298   -0.008830888182
 K    3.018583135154    3.863093978097   -0.011111792509
