17

 N   -2.564835154770   -2.583136148732    0.000162583276
 C   -1.354647087926   -1.927929945056    0.004124207244
 N   -0.121234673623   -2.526607639518    0.016162492149
 C    0.849188526433   -1.636431497907    0.004290035176
 N    0.646111689020   -0.274793364393   -0.002545125166
 H    1.449938814271    0.345167175362   -0.084533147588
 N    2.174643280670   -2.055106219587   -0.074057268059
 H    2.829179486002   -1.523302995187    0.493583508671
 H    2.253448368061   -3.055806363522    0.087526069930
 C   -0.613162053297    0.411240339138    0.010408661511
 O   -0.640742422402    1.639413423915    0.006320533083
 C   -1.685947179273   -0.562453050136    0.016609859451
 N   -3.057020481042   -0.376122004823    0.016534674735
 C   -3.550543975553   -1.614725018868    0.006204575070
 H   -4.608041888821   -1.868871640700    0.003257930644
 H   -2.689932151301   -3.589719233964   -0.008496967755
 K    3.290319322084    4.028221257767   -0.012406291621
