17

 N   -2.652454241160   -2.636380074563    0.000579983810
 C   -1.442266174316   -1.981173870887    0.004541607778
 N   -0.208853760013   -2.579851565349    0.016579892683
 C    0.761569440043   -1.689675423738    0.004707435710
 N    0.558492602630   -0.328037290224   -0.002127724632
 H    1.362319727881    0.291923249531   -0.084115747054
 N    2.087024194280   -2.108350145418   -0.073639867525
 H    2.741560399612   -1.576546921018    0.494000909205
 H    2.165829281671   -3.109050289353    0.087943470464
 C   -0.700781139687    0.357996413307    0.010826062045
 O   -0.728361508792    1.586169498084    0.006737933617
 C   -1.773566265663   -0.615696975967    0.017027259985
 N   -3.144639567432   -0.429365930654    0.016952075269
 C   -3.638163061943   -1.667968944699    0.006621975604
 H   -4.695660975211   -1.922115566531    0.003675331178
 H   -2.777551237691   -3.642963159795   -0.008079567221
 K    3.629989555748    4.234630357354   -0.014024415512
