17

 N   -2.687501875716   -2.657677644896    0.000746944024
 C   -1.477313808872   -2.002471441220    0.004708567992
 N   -0.243901394569   -2.601149135682    0.016746852897
 C    0.726521805487   -1.710972994071    0.004874395924
 N    0.523444968074   -0.349334860557   -0.001960764418
 H    1.327272093325    0.270625679198   -0.083948786840
 N    2.051976559724   -2.129647715751   -0.073472907311
 H    2.706512765056   -1.597844491351    0.494167869419
 H    2.130781647115   -3.130347859686    0.088110430678
 C   -0.735828774243    0.336698842974    0.010993022259
 O   -0.763409143348    1.564871927751    0.006904893831
 C   -1.808613900219   -0.636994546300    0.017194220199
 N   -3.179687201988   -0.450663500987    0.017119035483
 C   -3.673210696499   -1.689266515032    0.006788935818
 H   -4.730708609767   -1.943413136864    0.003842291392
 H   -2.812598872247   -3.664260730128   -0.007912607007
 K    3.765857649213    4.317193997189   -0.014671665068
