17

 N   -2.705025692994   -2.668326430062    0.000830424131
 C   -1.494837626150   -2.013120226386    0.004792048099
 N   -0.261425211847   -2.611797920848    0.016830333004
 C    0.708997988209   -1.721621779237    0.004957876031
 N    0.505921150796   -0.359983645723   -0.001877284311
 H    1.309748276047    0.259976894032   -0.083865306733
 N    2.034452742446   -2.140296500917   -0.073389427204
 H    2.688988947778   -1.608493276517    0.494251349526
 H    2.113257829837   -3.140996644852    0.088193910785
 C   -0.753352591521    0.326050057808    0.011076502366
 O   -0.780932960626    1.554223142585    0.006988373938
 C   -1.826137717497   -0.647643331466    0.017277700306
 N   -3.197211019266   -0.461312286153    0.017202515590
 C   -3.690734513777   -1.699915300198    0.006872415925
 H   -4.748232427045   -1.954061922030    0.003925771499
 H   -2.830122689525   -3.674909515294   -0.007829126900
 K    3.833791695946    4.358475817107   -0.014995289846
