17

 N   -2.757597144827   -2.700272785561    0.001080864451
 C   -1.547409077983   -2.045066581885    0.005042488419
 N   -0.313996663680   -2.643744276347    0.017080773324
 C    0.656426536376   -1.753568134736    0.005208316351
 N    0.453349698963   -0.391930001222   -0.001626843991
 H    1.257176824214    0.228030538533   -0.083614866413
 N    1.981881290613   -2.172242856416   -0.073138986884
 H    2.636417495945   -1.640439632016    0.494501789846
 H    2.060686378004   -3.172943000351    0.088444351105
 C   -0.805924043354    0.294103702309    0.011326942686
 O   -0.833504412459    1.522276787086    0.007238814258
 C   -1.878709169330   -0.679589686965    0.017528140626
 N   -3.249782471099   -0.493258641652    0.017452955910
 C   -3.743305965610   -1.731861655697    0.007122856245
 H   -4.800803878878   -1.986008277529    0.004176211819
 H   -2.882694141358   -3.706855870793   -0.007578686580
 K    4.037593836143    4.482321276859   -0.015966164180
