17

 N   -2.985406769440   -2.838706992723    0.002166105840
 C   -1.775218702596   -2.183500789047    0.006127729808
 N   -0.541806288293   -2.782178483509    0.018166014713
 C    0.428616911763   -1.892002341898    0.006293557740
 N    0.225540074350   -0.530364208384   -0.000541602602
 H    1.029367199601    0.089596331371   -0.082529625024
 N    1.754071666000   -2.310677063578   -0.072053745495
 H    2.408607871332   -1.778873839178    0.495587031235
 H    1.832876753391   -3.311377207513    0.089529592494
 C   -1.033733667967    0.155669495147    0.012412184075
 O   -1.061314037072    1.383842579924    0.008324055647
 C   -2.106518793943   -0.818023894127    0.018613382015
 N   -3.477592095712   -0.631692848814    0.018538197299
 C   -3.971115590223   -1.870295862859    0.008208097634
 H   -5.028613503491   -2.124442484691    0.005261453208
 H   -3.110503765971   -3.845290077955   -0.006493445191
 K    4.920736443668    5.018984935785   -0.020173286295
