17

 N   -3.037978221274   -2.870653348222    0.002416546160
 C   -1.827790154430   -2.215447144546    0.006378170128
 N   -0.594377740127   -2.814124839008    0.018416455033
 C    0.376045459929   -1.923948697397    0.006543998060
 N    0.172968622516   -0.562310563883   -0.000291162282
 H    0.976795747767    0.057649975872   -0.082279184704
 N    1.701500214166   -2.342623419077   -0.071803305175
 H    2.356036419498   -1.810820194677    0.495837471555
 H    1.780305301557   -3.343323563012    0.089780032814
 C   -1.086305119801    0.123723139648    0.012662624395
 O   -1.113885488906    1.351896224425    0.008574495967
 C   -2.159090245777   -0.849970249626    0.018863822335
 N   -3.530163547546   -0.663639204313    0.018788637619
 C   -4.023687042057   -1.902242218358    0.008458537954
 H   -5.081184955325   -2.156388840190    0.005511893528
 H   -3.163075217805   -3.877236433454   -0.006243004871
 K    5.124538583866    5.142830395538   -0.021144160629
