17

 N   -3.073025855830   -2.891950918554    0.002583506374
 C   -1.862837788986   -2.236744714878    0.006545130342
 N   -0.629425374683   -2.835422409340    0.018583415247
 C    0.340997825373   -1.945246267729    0.006710958274
 N    0.137920987960   -0.583608134215   -0.000124202068
 H    0.941748113211    0.036352405540   -0.082112224490
 N    1.666452579610   -2.363920989409   -0.071636344961
 H    2.320988784942   -1.832117765009    0.496004431769
 H    1.745257667001   -3.364621133344    0.089946993028
 C   -1.121352754357    0.102425569316    0.012829584609
 O   -1.148933123462    1.330598654093    0.008741456181
 C   -2.194137880333   -0.871267819958    0.019030782549
 N   -3.565211182102   -0.684936774645    0.018955597833
 C   -4.058734676613   -1.923539788690    0.008625498168
 H   -5.116232589881   -2.177686410522    0.005678853742
 H   -3.198122852361   -3.898534003786   -0.006076044657
 K    5.260406677331    5.225394035373   -0.021791410185
