17

 N   -3.090549673108   -2.902599703721    0.002666986481
 C   -1.880361606264   -2.247393500045    0.006628610449
 N   -0.646949191961   -2.846071194507    0.018666895354
 C    0.323474008095   -1.955895052896    0.006794438381
 N    0.120397170682   -0.594256919382   -0.000040721961
 H    0.924224295933    0.025703620373   -0.082028744383
 N    1.648928762332   -2.374569774576   -0.071552864854
 H    2.303464967664   -1.842766550176    0.496087911876
 H    1.727733849723   -3.375269918511    0.090030473135
 C   -1.138876571635    0.091776784149    0.012913064716
 O   -1.166456940740    1.319949868926    0.008824936288
 C   -2.211661697611   -0.881916605125    0.019114262656
 N   -3.582734999380   -0.695585559812    0.019039077940
 C   -4.076258493891   -1.934188573857    0.008708978275
 H   -5.133756407159   -2.188335195689    0.005762333849
 H   -3.215646669639   -3.909182788953   -0.005992564550
 K    5.328340724064    5.266675855290   -0.022115034964
