17

 N   -3.125597307664   -2.923897274053    0.002833946694
 C   -1.915409240820   -2.268691070377    0.006795570662
 N   -0.681996826517   -2.867368764839    0.018833855567
 C    0.288426373539   -1.977192623228    0.006961398594
 N    0.085349536126   -0.615554489714    0.000126238252
 H    0.889176661377    0.004406050041   -0.081861784170
 N    1.613881127776   -2.395867344908   -0.071385904641
 H    2.268417333108   -1.864064120508    0.496254872089
 H    1.692686215167   -3.396567488843    0.090197433348
 C   -1.173924206191    0.070479213817    0.013080024929
 O   -1.201504575296    1.298652298594    0.008991896501
 C   -2.246709332167   -0.903214175457    0.019281222869
 N   -3.617782633936   -0.716883130144    0.019206038153
 C   -4.111306128447   -1.955486144189    0.008875938488
 H   -5.168804041715   -2.209632766021    0.005929294062
 H   -3.250694304195   -3.930480359285   -0.005825604337
 K    5.464208817529    5.349239495125   -0.022762284520
