17

 N   -3.160644942220   -2.945194844386    0.003000906908
 C   -1.950456875376   -2.289988640710    0.006962530876
 N   -0.717044461073   -2.888666335172    0.019000815781
 C    0.253378738983   -1.998490193561    0.007128358808
 N    0.050301901570   -0.636852060047    0.000293198466
 H    0.854129026821   -0.016891520292   -0.081694823956
 N    1.578833493220   -2.417164915241   -0.071218944427
 H    2.233369698552   -1.885361690841    0.496421832303
 H    1.657638580611   -3.417865059176    0.090364393562
 C   -1.208971840747    0.049181643484    0.013246985143
 O   -1.236552209852    1.277354728261    0.009158856715
 C   -2.281756966723   -0.924511745790    0.019448183083
 N   -3.652830268492   -0.738180700477    0.019372998367
 C   -4.146353763003   -1.976783714522    0.009042898702
 H   -5.203851676271   -2.230930336354    0.006096254276
 H   -3.285741938751   -3.951777929618   -0.005658644123
 K    5.600076910994    5.431803134960   -0.023409534076
