17

 N   -3.195692576776   -2.966492414718    0.003167867121
 C   -1.985504509932   -2.311286211042    0.007129491089
 N   -0.752092095629   -2.909963905504    0.019167775994
 C    0.218331104427   -2.019787763893    0.007295319021
 N    0.015254267014   -0.658149630379    0.000460158679
 H    0.819081392265   -0.038189090624   -0.081527863743
 N    1.543785858664   -2.438462485573   -0.071051984214
 H    2.198322063996   -1.906659261173    0.496588792516
 H    1.622590946055   -3.439162629508    0.090531353775
 C   -1.244019475303    0.027884073152    0.013413945356
 O   -1.271599844408    1.256057157929    0.009325816928
 C   -2.316804601279   -0.945809316122    0.019615143296
 N   -3.687877903048   -0.759478270809    0.019539958580
 C   -4.181401397559   -1.998081284854    0.009209858915
 H   -5.238899310827   -2.252227906686    0.006263214489
 H   -3.320789573307   -3.973075499950   -0.005491683910
 K    5.735945004460    5.514366774795   -0.024056783632
