17

 N   -3.213216394053   -2.977141199885    0.003251347228
 C   -2.003028327209   -2.321934996209    0.007212971196
 N   -0.769615912906   -2.920612690671    0.019251256101
 C    0.200807287150   -2.030436549060    0.007378799128
 N   -0.002269550263   -0.668798415546    0.000543638786
 H    0.801557574988   -0.048837875791   -0.081444383636
 N    1.526262041387   -2.449111270740   -0.070968504107
 H    2.180798246719   -1.917308046340    0.496672272623
 H    1.605067128778   -3.449811414675    0.090614833882
 C   -1.261543292580    0.017235287985    0.013497425463
 O   -1.289123661685    1.245408372762    0.009409297035
 C   -2.334328418556   -0.956458101289    0.019698623403
 N   -3.705401720325   -0.770127055976    0.019623438687
 C   -4.198925214836   -2.008730070021    0.009293339022
 H   -5.256423128104   -2.262876691853    0.006346694596
 H   -3.338313390584   -3.983724285117   -0.005408203803
 K    5.803879051192    5.555648594712   -0.024380408410
