17

 N   -3.265787845887   -3.009087555384    0.003501787549
 C   -2.055599779043   -2.353881351708    0.007463411517
 N   -0.822187364740   -2.952559046170    0.019501696422
 C    0.148235835316   -2.062382904559    0.007629239449
 N   -0.054841002097   -0.700744771045    0.000794079107
 H    0.748986123154   -0.080784231290   -0.081193943315
 N    1.473690589553   -2.481057626239   -0.070718063786
 H    2.128226794885   -1.949254401839    0.496922712944
 H    1.552495676944   -3.481757770174    0.090865274203
 C   -1.314114744414   -0.014711067514    0.013747865784
 O   -1.341695113519    1.213462017263    0.009659737356
 C   -2.386899870390   -0.988404456788    0.019949063724
 N   -3.757973172159   -0.802073411475    0.019873879008
 C   -4.251496666670   -2.040676425520    0.009543779343
 H   -5.308994579938   -2.294823047352    0.006597134917
 H   -3.390884842418   -4.015670640616   -0.005157763482
 K    6.007681191390    5.679494054464   -0.025351282744
