17

 N   -3.318359297721   -3.041033910883    0.003752227869
 C   -2.108171230877   -2.385827707207    0.007713851837
 N   -0.874758816574   -2.984505401669    0.019752136742
 C    0.095664383482   -2.094329260058    0.007879679769
 N   -0.107412453931   -0.732691126544    0.001044519427
 H    0.696414671320   -0.112730586789   -0.080943502995
 N    1.421119137719   -2.513003981738   -0.070467623466
 H    2.075655343051   -1.981200757338    0.497173153264
 H    1.499924225110   -3.513704125673    0.091115714523
 C   -1.366686196248   -0.046657423013    0.013998306104
 O   -1.394266565353    1.181515661764    0.009910177676
 C   -2.439471322224   -1.020350812287    0.020199504044
 N   -3.810544623993   -0.834019766974    0.020124319328
 C   -4.304068118504   -2.072622781019    0.009794219663
 H   -5.361566031772   -2.326769402851    0.006847575237
 H   -3.443456294252   -4.047616996115   -0.004907323162
 K    6.211483331588    5.803339514217   -0.026322157078
