14

 P    0.007042389723   -0.216316535719   -0.935674233431
 O   -0.579957610277    0.833683464281    0.019325766569
 O   -0.258957610277   -0.168316535719   -2.447674233431
 O    1.670042389723   -0.390316535719   -0.648674233431
 O   -0.307957610277   -1.774316535719   -0.343674233431
 C    2.407042389723    0.774683464281   -1.025674233431
 H    2.076042389723    1.657683464281   -0.449674233431
 H    2.292042389723    0.985683464281   -2.103674233431
 H    3.467042389723    0.572683464281   -0.805674233431
 C   -1.698957610277   -2.097316535719   -0.393674233431
 H   -2.076957610277   -2.070316535719   -1.431674233431
 H   -2.291957610277   -1.398316535719    0.222325766569
 H   -1.808957610277   -3.117316535719    0.006325766569
CS   -0.141103477794    0.375820824094    0.792480895327
