14

 P   -0.015572883646   -0.192721705440   -0.975516890248
 O   -0.602572883646    0.857278294560   -0.020516890248
 O   -0.281572883646   -0.144721705440   -2.487516890248
 O    1.647427116354   -0.366721705440   -0.688516890248
 O   -0.330572883646   -1.750721705440   -0.383516890248
 C    2.384427116354    0.798278294560   -1.065516890248
 H    2.053427116354    1.681278294560   -0.489516890248
 H    2.269427116354    1.009278294560   -2.143516890248
 H    3.444427116354    0.596278294560   -0.845516890248
 C   -1.721572883646   -2.073721705440   -0.433516890248
 H   -2.099572883646   -2.046721705440   -1.471516890248
 H   -2.314572883646   -1.374721705440    0.182483109752
 H   -1.831572883646   -3.093721705440   -0.033516890248
CS   -0.119833337915    0.353629390355    0.829953751385
