14

 P   -0.151264523860   -0.051152723765   -1.214572831154
 O   -0.738264523860    0.998847276235   -0.259572831154
 O   -0.417264523860   -0.003152723765   -2.726572831154
 O    1.511735476140   -0.225152723765   -0.927572831154
 O   -0.466264523860   -1.609152723765   -0.622572831154
 C    2.248735476140    0.939847276235   -1.304572831154
 H    1.917735476140    1.822847276235   -0.728572831154
 H    2.133735476140    1.150847276235   -2.382572831154
 H    3.308735476140    0.737847276235   -1.084572831154
 C   -1.857264523860   -1.932152723765   -0.672572831154
 H   -2.235264523860   -1.905152723765   -1.710572831154
 H   -2.450264523860   -1.233152723765   -0.056572831154
 H   -1.967264523860   -2.952152723765   -0.272572831154
CS    0.007787501361    0.220480787918    1.054790887734
