14

 P   -0.173879797229   -0.027557893485   -1.254415487971
 O   -0.760879797229    1.022442106515   -0.299415487971
 O   -0.439879797229    0.020442106515   -2.766415487971
 O    1.489120202771   -0.201557893485   -0.967415487971
 O   -0.488879797229   -1.585557893485   -0.662415487971
 C    2.226120202771    0.963442106515   -1.344415487971
 H    1.895120202771    1.846442106515   -0.768415487971
 H    2.111120202771    1.174442106515   -2.422415487971
 H    3.286120202771    0.761442106515   -1.124415487971
 C   -1.879879797229   -1.908557893485   -0.712415487971
 H   -2.257879797229   -1.881557893485   -1.750415487971
 H   -2.472879797229   -1.209557893485   -0.096415487971
 H   -1.989879797229   -2.928557893485   -0.312415487971
CS    0.029057641240    0.198289354179    1.092263743792
