14

 P   -0.264340890705    0.066821427632   -1.413786115242
 O   -0.851340890705    1.116821427632   -0.458786115242
 O   -0.530340890705    0.114821427632   -2.925786115242
 O    1.398659109295   -0.107178572368   -1.126786115242
 O   -0.579340890705   -1.491178572368   -0.821786115242
 C    2.135659109295    1.057821427632   -1.503786115242
 H    1.804659109295    1.940821427632   -0.927786115242
 H    2.020659109295    1.268821427632   -2.581786115242
 H    3.195659109295    0.855821427632   -1.283786115242
 C   -1.970340890705   -1.814178572368   -0.871786115242
 H   -2.348340890705   -1.787178572368   -1.909786115242
 H   -2.563340890705   -1.115178572368   -0.255786115242
 H   -2.080340890705   -2.834178572368   -0.471786115242
CS    0.114138200757    0.109523619221    1.242155168025
