14

 P   -0.354801984181    0.161200748749   -1.573156742512
 O   -0.941801984181    1.211200748749   -0.618156742512
 O   -0.620801984181    0.209200748749   -3.085156742512
 O    1.308198015819   -0.012799251251   -1.286156742512
 O   -0.669801984181   -1.396799251251   -0.981156742512
 C    2.045198015819    1.152200748748   -1.663156742512
 H    1.714198015819    2.035200748748   -1.087156742512
 H    1.930198015819    1.363200748749   -2.741156742512
 H    3.105198015819    0.950200748749   -1.443156742512
 C   -2.060801984181   -1.719799251251   -1.031156742512
 H   -2.438801984181   -1.692799251251   -2.069156742512
 H   -2.653801984181   -1.020799251251   -0.415156742512
 H   -2.170801984181   -2.739799251252   -0.631156742512
CS    0.199218760274    0.020757884263    1.392046592257
