14

 P   -0.445263077657    0.255580069865   -1.732527369782
 O   -1.032263077657    1.305580069865   -0.777527369782
 O   -0.711263077657    0.303580069865   -3.244527369782
 O    1.217736922343    0.081580069865   -1.445527369782
 O   -0.760263077657   -1.302419930135   -1.140527369782
 C    1.954736922343    1.246580069865   -1.822527369782
 H    1.623736922343    2.129580069865   -1.246527369782
 H    1.839736922343    1.457580069865   -2.900527369782
 H    3.014736922343    1.044580069865   -1.602527369782
 C   -2.151263077657   -1.625419930135   -1.190527369782
 H   -2.529263077657   -1.598419930135   -2.228527369782
 H   -2.744263077657   -0.926419930135   -0.574527369782
 H   -2.261263077657   -2.645419930135   -0.790527369782
CS    0.284299319791   -0.068007850695    1.541938016490
