14

 P   -0.558339444502    0.373554221262   -1.931740653870
 O   -1.145339444502    1.423554221262   -0.976740653870
 O   -0.824339444502    0.421554221262   -3.443740653870
 O    1.104660555498    0.199554221262   -1.644740653870
 O   -0.873339444502   -1.184445778738   -1.339740653870
 C    1.841660555498    1.364554221262   -2.021740653870
 H    1.510660555498    2.247554221262   -1.445740653870
 H    1.726660555498    1.575554221262   -3.099740653870
 H    2.901660555498    1.162554221262   -1.801740653870
 C   -2.264339444502   -1.507445778738   -1.389740653870
 H   -2.642339444502   -1.480445778738   -2.427740653870
 H   -2.857339444502   -0.808445778738   -0.773740653870
 H   -2.374339444502   -2.527445778738   -0.989740653870
CS    0.390650019188   -0.178965019392    1.729302296781
