14

 P   -0.694031084716    0.515123202937   -2.170796594776
 O   -1.281031084716    1.565123202937   -1.215796594776
 O   -0.960031084716    0.563123202937   -3.682796594776
 O    0.968968915284    0.341123202937   -1.883796594776
 O   -1.009031084716   -1.042876797063   -1.578796594776
 C    1.705968915284    1.506123202937   -2.260796594776
 H    1.374968915284    2.389123202937   -1.684796594776
 H    1.590968915284    1.717123202937   -3.338796594776
 H    2.765968915284    1.304123202937   -2.040796594776
 C   -2.400031084716   -1.365876797063   -1.628796594776
 H   -2.778031084716   -1.338876797063   -2.666796594776
 H   -2.993031084716   -0.666876797063   -1.012796594776
 H   -2.510031084716   -2.385876797063   -1.228796594776
CS    0.518270858463   -0.312113621829    1.954139433130
