14

 P   -0.739261631454    0.562312863496   -2.250481908411
 O   -1.326261631454    1.612312863496   -1.295481908411
 O   -1.005261631454    0.610312863496   -3.762481908411
 O    0.923738368546    0.388312863496   -1.963481908411
 O   -1.054261631454   -0.995687136504   -1.658481908411
 C    1.660738368546    1.553312863496   -2.340481908411
 H    1.329738368546    2.436312863496   -1.764481908411
 H    1.545738368546    1.764312863496   -3.418481908411
 H    2.720738368546    1.351312863496   -2.120481908411
 C   -2.445261631454   -1.318687136504   -1.708481908411
 H   -2.823261631454   -1.291687136504   -2.746481908411
 H   -3.038261631454   -0.619687136504   -1.092481908411
 H   -2.555261631454   -2.338687136504   -1.308481908411
CS    0.560811138222   -0.356496489307    2.029085145246
