14

 P   -0.784492178192    0.609502524054   -2.330167222046
 O   -1.371492178192    1.659502524054   -1.375167222046
 O   -1.050492178192    0.657502524054   -3.842167222046
 O    0.878507821808    0.435502524054   -2.043167222046
 O   -1.099492178192   -0.948497475946   -1.738167222046
 C    1.615507821808    1.600502524054   -2.420167222046
 H    1.284507821808    2.483502524054   -1.844167222046
 H    1.500507821808    1.811502524054   -3.498167222046
 H    2.675507821808    1.398502524054   -2.200167222046
 C   -2.490492178192   -1.271497475946   -1.788167222046
 H   -2.868492178192   -1.244497475946   -2.826167222046
 H   -3.083492178192   -0.572497475946   -1.172167222046
 H   -2.600492178192   -2.291497475946   -1.388167222046
CS    0.603351417981   -0.400879356786    2.104030857363
