14

 P   -0.807107451561    0.633097354333   -2.370009878864
 O   -1.394107451561    1.683097354333   -1.415009878864
 O   -1.073107451561    0.681097354333   -3.882009878864
 O    0.855892548439    0.459097354333   -2.083009878864
 O   -1.122107451561   -0.924902645667   -1.778009878864
 C    1.592892548439    1.624097354333   -2.460009878864
 H    1.261892548439    2.507097354333   -1.884009878864
 H    1.477892548439    1.835097354333   -3.538009878864
 H    2.652892548439    1.422097354333   -2.240009878864
 C   -2.513107451561   -1.247902645667   -1.828009878864
 H   -2.891107451561   -1.220902645667   -2.866009878864
 H   -3.106107451561   -0.548902645667   -1.212009878864
 H   -2.623107451561   -2.267902645667   -1.428009878864
CS    0.624621557860   -0.423070790526    2.141503713421
