14

 P   -0.852337998299    0.680287014892   -2.449695192499
 O   -1.439337998299    1.730287014892   -1.494695192499
 O   -1.118337998299    0.728287014892   -3.961695192499
 O    0.810662001701    0.506287014892   -2.162695192499
 O   -1.167337998299   -0.877712985108   -1.857695192499
 C    1.547662001701    1.671287014892   -2.539695192499
 H    1.216662001701    2.554287014892   -1.963695192499
 H    1.432662001701    1.882287014892   -3.617695192499
 H    2.607662001701    1.469287014892   -2.319695192499
 C   -2.558337998299   -1.200712985108   -1.907695192499
 H   -2.936337998299   -1.173712985108   -2.945695192499
 H   -3.151337998299   -0.501712985108   -1.291695192499
 H   -2.668337998299   -2.220712985108   -1.507695192499
CS    0.667161837618   -0.467453658005    2.216449425537
