14

 P   -0.874953271668    0.703881845171   -2.489537849317
 O   -1.461953271668    1.753881845171   -1.534537849317
 O   -1.140953271668    0.751881845171   -4.001537849317
 O    0.788046728332    0.529881845171   -2.202537849317
 O   -1.189953271668   -0.854118154829   -1.897537849317
 C    1.525046728332    1.694881845171   -2.579537849317
 H    1.194046728332    2.577881845171   -2.003537849317
 H    1.410046728332    1.905881845171   -3.657537849317
 H    2.585046728332    1.492881845171   -2.359537849317
 C   -2.580953271668   -1.177118154829   -1.947537849317
 H   -2.958953271668   -1.150118154829   -2.985537849317
 H   -3.173953271668   -0.478118154829   -1.331537849317
 H   -2.690953271668   -2.197118154829   -1.547537849317
CS    0.688431977498   -0.489645091744    2.253922281595
