14

 P   -0.942799091775    0.774666336009   -2.609065819769
 O   -1.529799091775    1.824666336009   -1.654065819769
 O   -1.208799091775    0.822666336009   -4.121065819769
 O    0.720200908225    0.600666336009   -2.322065819769
 O   -1.257799091775   -0.783333663991   -2.017065819769
 C    1.457200908225    1.765666336009   -2.699065819769
 H    1.126200908225    2.648666336009   -2.123065819769
 H    1.342200908225    1.976666336009   -3.777065819769
 H    2.517200908225    1.563666336009   -2.479065819769
 C   -2.648799091775   -1.106333663991   -2.067065819769
 H   -3.026799091775   -1.079333663991   -3.105065819769
 H   -3.241799091775   -0.407333663991   -1.451065819769
 H   -2.758799091775   -2.126333663991   -1.667065819769
CS    0.752242397136   -0.556219392962    2.366340849770
