14

 P   -0.965414365144    0.798261166288   -2.648908476587
 O   -1.552414365144    1.848261166288   -1.693908476587
 O   -1.231414365144    0.846261166288   -4.160908476587
 O    0.697585634856    0.624261166288   -2.361908476587
 O   -1.280414365144   -0.759738833712   -2.056908476587
 C    1.434585634856    1.789261166288   -2.738908476587
 H    1.103585634856    2.672261166288   -2.162908476587
 H    1.319585634856    2.000261166288   -3.816908476587
 H    2.494585634856    1.587261166288   -2.518908476587
 C   -2.671414365144   -1.082738833712   -2.106908476587
 H   -3.049414365144   -1.055738833712   -3.144908476587
 H   -3.264414365144   -0.383738833712   -1.490908476587
 H   -2.781414365144   -2.102738833712   -1.706908476587
CS    0.773512537015   -0.578410826702    2.403813705828
