14

 P   -0.988029638513    0.821855996567   -2.688751133405
 O   -1.575029638513    1.871855996567   -1.733751133405
 O   -1.254029638513    0.869855996567   -4.200751133405
 O    0.674970361487    0.647855996567   -2.401751133405
 O   -1.303029638513   -0.736144003433   -2.096751133405
 C    1.411970361487    1.812855996567   -2.778751133405
 H    1.080970361487    2.695855996567   -2.202751133405
 H    1.296970361487    2.023855996567   -3.856751133405
 H    2.471970361487    1.610855996567   -2.558751133405
 C   -2.694029638513   -1.059144003433   -2.146751133405
 H   -3.072029638513   -1.032144003433   -3.184751133405
 H   -3.287029638513   -0.360144003433   -1.530751133405
 H   -2.804029638513   -2.079144003433   -1.746751133405
CS    0.794782676894   -0.600602260441    2.441286561886
