14

 P   -1.055875458620    0.892640487405   -2.808279103857
 O   -1.642875458620    1.942640487405   -1.853279103857
 O   -1.321875458620    0.940640487405   -4.320279103857
 O    0.607124541380    0.718640487405   -2.521279103857
 O   -1.370875458620   -0.665359512595   -2.216279103857
 C    1.344124541380    1.883640487405   -2.898279103857
 H    1.013124541380    2.766640487405   -2.322279103857
 H    1.229124541380    2.094640487405   -3.976279103857
 H    2.404124541380    1.681640487405   -2.678279103857
 C   -2.761875458620   -0.988359512595   -2.266279103857
 H   -3.139875458620   -0.961359512595   -3.304279103857
 H   -3.354875458620   -0.289359512595   -1.650279103857
 H   -2.871875458620   -2.008359512595   -1.866279103857
CS    0.858593096532   -0.667176561659    2.553705130060
