14

 P   -1.101106005358    0.939830147963   -2.887964417493
 O   -1.688106005358    1.989830147963   -1.932964417493
 O   -1.367106005358    0.987830147963   -4.399964417493
 O    0.561893994642    0.765830147963   -2.600964417493
 O   -1.416106005358   -0.618169852037   -2.295964417493
 C    1.298893994642    1.930830147963   -2.977964417493
 H    0.967893994642    2.813830147963   -2.401964417493
 H    1.183893994642    2.141830147963   -4.055964417493
 H    2.358893994642    1.728830147963   -2.757964417493
 C   -2.807106005358   -0.941169852037   -2.345964417493
 H   -3.185106005358   -0.914169852037   -3.383964417493
 H   -3.400106005358   -0.242169852037   -1.729964417493
 H   -2.917106005358   -1.961169852037   -1.945964417493
CS    0.901133376290   -0.711559429138    2.628650842177
