14

 P   -1.191567098834    1.034209469080   -3.047335044763
 O   -1.778567098834    2.084209469080   -2.092335044763
 O   -1.457567098834    1.082209469080   -4.559335044763
 O    0.471432901166    0.860209469080   -2.760335044763
 O   -1.506567098834   -0.523790530920   -2.455335044763
 C    1.208432901166    2.025209469080   -3.137335044763
 H    0.877432901166    2.908209469080   -2.561335044763
 H    1.093432901166    2.236209469080   -4.215335044763
 H    2.268432901166    1.823209469080   -2.917335044763
 C   -2.897567098834   -0.846790530920   -2.505335044763
 H   -3.275567098834   -0.819790530920   -3.543335044763
 H   -3.490567098834   -0.147790530920   -1.889335044763
 H   -3.007567098834   -1.866790530920   -2.105335044763
CS    0.986213935808   -0.800325164096    2.778542266409
