14

 P   -1.236797645572    1.081399129639   -3.127020358398
 O   -1.823797645572    2.131399129639   -2.172020358398
 O   -1.502797645572    1.129399129639   -4.639020358398
 O    0.426202354428    0.907399129639   -2.840020358398
 O   -1.551797645572   -0.476600870361   -2.535020358398
 C    1.163202354428    2.072399129639   -3.217020358398
 H    0.832202354428    2.955399129639   -2.641020358398
 H    1.048202354428    2.283399129639   -4.295020358398
 H    2.223202354428    1.870399129639   -2.997020358398
 C   -2.942797645572   -0.799600870361   -2.585020358398
 H   -3.320797645572   -0.772600870361   -3.623020358398
 H   -3.535797645572   -0.100600870361   -1.969020358398
 H   -3.052797645572   -1.819600870361   -2.185020358398
CS    1.028754215566   -0.844708031575    2.853487978526
