14

 P   -1.327258739048    1.175778450756   -3.286390985668
 O   -1.914258739048    2.225778450756   -2.331390985668
 O   -1.593258739048    1.223778450756   -4.798390985668
 O    0.335741260952    1.001778450756   -2.999390985668
 O   -1.642258739048   -0.382221549244   -2.694390985668
 C    1.072741260952    2.166778450756   -3.376390985668
 H    0.741741260952    3.049778450756   -2.800390985668
 H    0.957741260952    2.377778450756   -4.454390985668
 H    2.132741260952    1.964778450756   -3.156390985668
 C   -3.033258739048   -0.705221549244   -2.744390985668
 H   -3.411258739048   -0.678221549244   -3.782390985668
 H   -3.626258739048   -0.006221549244   -2.128390985668
 H   -3.143258739048   -1.725221549244   -2.344390985668
CS    1.113834775083   -0.933473766533    3.003379402758
