14

 P   -1.349874012417    1.199373281035   -3.326233642486
 O   -1.936874012417    2.249373281035   -2.371233642486
 O   -1.615874012417    1.247373281035   -4.838233642486
 O    0.313125987583    1.025373281035   -3.039233642486
 O   -1.664874012417   -0.358626718965   -2.734233642486
 C    1.050125987583    2.190373281035   -3.416233642486
 H    0.719125987583    3.073373281035   -2.840233642486
 H    0.935125987583    2.401373281035   -4.494233642486
 H    2.110125987583    1.988373281035   -3.196233642486
 C   -3.055874012417   -0.681626718965   -2.784233642486
 H   -3.433874012417   -0.654626718965   -3.822233642486
 H   -3.648874012417    0.017373281035   -2.168233642486
 H   -3.165874012417   -1.701626718965   -2.384233642486
CS    1.135104914963   -0.955665200272    3.040852258817
