14

 P   -1.372489285786    1.222968111314   -3.366076299304
 O   -1.959489285786    2.272968111314   -2.411076299304
 O   -1.638489285786    1.270968111314   -4.878076299304
 O    0.290510714214    1.048968111314   -3.079076299304
 O   -1.687489285786   -0.335031888686   -2.774076299304
 C    1.027510714214    2.213968111314   -3.456076299304
 H    0.696510714214    3.096968111314   -2.880076299304
 H    0.912510714214    2.424968111314   -4.534076299304
 H    2.087510714214    2.011968111314   -3.236076299304
 C   -3.078489285786   -0.658031888686   -2.824076299304
 H   -3.456489285786   -0.631031888686   -3.862076299304
 H   -3.671489285786    0.040968111314   -2.208076299304
 H   -3.188489285786   -1.678031888686   -2.424076299304
CS    1.156375054842   -0.977856634012    3.078325114875
