14

 P   -1.553411472738    1.411726753548   -3.684817553844
 O   -2.140411472738    2.461726753548   -2.729817553844
 O   -1.819411472738    1.459726753548   -5.196817553844
 O    0.109588527262    1.237726753548   -3.397817553844
 O   -1.868411472738   -0.146273246452   -3.092817553844
 C    0.846588527262    2.402726753548   -3.774817553844
 H    0.515588527262    3.285726753548   -3.198817553844
 H    0.731588527262    2.613726753548   -4.852817553844
 H    1.906588527262    2.200726753548   -3.554817553844
 C   -3.259411472738   -0.469273246452   -3.142817553844
 H   -3.637411472738   -0.442273246452   -4.180817553844
 H   -3.852411472738    0.229726753548   -2.526817553844
 H   -3.369411472738   -1.489273246452   -2.742817553844
CS    1.326536173876   -1.155388103927    3.378107963340
