14

 P   -1.598642019476    1.458916414107   -3.764502867480
 O   -2.185642019476    2.508916414107   -2.809502867480
 O   -1.864642019476    1.506916414107   -5.276502867480
 O    0.064357980524    1.284916414107   -3.477502867480
 O   -1.913642019476   -0.099083585893   -3.172502867480
 C    0.801357980524    2.449916414107   -3.854502867480
 H    0.470357980524    3.332916414107   -3.278502867480
 H    0.686357980524    2.660916414107   -4.932502867480
 H    1.861357980524    2.247916414107   -3.634502867480
 C   -3.304642019476   -0.422083585893   -3.222502867480
 H   -3.682642019476   -0.395083585893   -4.260502867480
 H   -3.897642019476    0.276916414107   -2.606502867480
 H   -3.414642019476   -1.442083585893   -2.822502867480
CS    1.369076453635   -1.199770971406    3.453053675456
