14

 P   -1.621257292845    1.482511244386   -3.804345524297
 O   -2.208257292845    2.532511244386   -2.849345524297
 O   -1.887257292845    1.530511244386   -5.316345524297
 O    0.041742707155    1.308511244386   -3.517345524297
 O   -1.936257292845   -0.075488755614   -3.212345524297
 C    0.778742707155    2.473511244386   -3.894345524297
 H    0.447742707155    3.356511244386   -3.318345524297
 H    0.663742707155    2.684511244386   -4.972345524297
 H    1.838742707155    2.271511244386   -3.674345524297
 C   -3.327257292845   -0.398488755614   -3.262345524297
 H   -3.705257292845   -0.371488755614   -4.300345524297
 H   -3.920257292845    0.300511244386   -2.646345524297
 H   -3.437257292845   -1.418488755614   -2.862345524297
CS    1.390346593514   -1.221962405145    3.490526531515
