14

 P   -1.666487839583    1.529700904944   -3.884030837932
 O   -2.253487839583    2.579700904944   -2.929030837932
 O   -1.932487839583    1.577700904944   -5.396030837932
 O   -0.003487839583    1.355700904944   -3.597030837932
 O   -1.981487839583   -0.028299095056   -3.292030837932
 C    0.733512160417    2.520700904944   -3.974030837932
 H    0.402512160417    3.403700904944   -3.398030837932
 H    0.618512160417    2.731700904944   -5.052030837932
 H    1.793512160417    2.318700904944   -3.754030837932
 C   -3.372487839583   -0.351299095056   -3.342030837932
 H   -3.750487839583   -0.324299095056   -4.380030837932
 H   -3.965487839583    0.347700904944   -2.726030837932
 H   -3.482487839583   -1.371299095056   -2.942030837932
CS    1.432886873273   -1.266345272624    3.565472243631
