14

 P   -1.711718386321    1.576890565503   -3.963716151568
 O   -2.298718386321    2.626890565503   -3.008716151568
 O   -1.977718386321    1.624890565503   -5.475716151568
 O   -0.048718386321    1.402890565503   -3.676716151568
 O   -2.026718386321    0.018890565503   -3.371716151568
 C    0.688281613679    2.567890565503   -4.053716151568
 H    0.357281613679    3.450890565503   -3.477716151568
 H    0.573281613679    2.778890565503   -5.131716151568
 H    1.748281613679    2.365890565503   -3.833716151568
 C   -3.417718386321   -0.304109434497   -3.421716151568
 H   -3.795718386321   -0.277109434497   -4.459716151568
 H   -4.010718386321    0.394890565503   -2.805716151568
 H   -3.527718386321   -1.324109434497   -3.021716151568
CS    1.475427153031   -1.310728140103    3.640417955747
