14

 P   -1.779564206428    1.647675056340   -4.083244122020
 O   -2.366564206428    2.697675056340   -3.128244122020
 O   -2.045564206428    1.695675056340   -5.595244122020
 O   -0.116564206428    1.473675056340   -3.796244122020
 O   -2.094564206428    0.089675056340   -3.491244122020
 C    0.620435793572    2.638675056340   -4.173244122020
 H    0.289435793572    3.521675056340   -3.597244122020
 H    0.505435793572    2.849675056340   -5.251244122020
 H    1.680435793572    2.436675056340   -3.953244122020
 C   -3.485564206428   -0.233324943660   -3.541244122020
 H   -3.863564206428   -0.206324943660   -4.579244122020
 H   -4.078564206428    0.465675056340   -2.925244122020
 H   -3.595564206428   -1.253324943660   -3.141244122020
CS    1.539237572669   -1.377302441321    3.752836523922
