14

 P   -1.824794753166    1.694864716899   -4.162929435655
 O   -2.411794753166    2.744864716899   -3.207929435655
 O   -2.090794753166    1.742864716899   -5.674929435655
 O   -0.161794753166    1.520864716899   -3.875929435655
 O   -2.139794753166    0.136864716899   -3.570929435655
 C    0.575205246834    2.685864716899   -4.252929435655
 H    0.244205246834    3.568864716899   -3.676929435655
 H    0.460205246834    2.896864716899   -5.330929435655
 H    1.635205246834    2.483864716899   -4.032929435655
 C   -3.530794753166   -0.186135283101   -3.620929435655
 H   -3.908794753166   -0.159135283101   -4.658929435655
 H   -4.123794753166    0.512864716899   -3.004929435655
 H   -3.640794753166   -1.206135283101   -3.220929435655
CS    1.581777852427   -1.421685308800    3.827782236038
