14

 P   -1.847410026535    1.718459547178   -4.202772092473
 O   -2.434410026535    2.768459547178   -3.247772092473
 O   -2.113410026535    1.766459547178   -5.714772092473
 O   -0.184410026535    1.544459547178   -3.915772092473
 O   -2.162410026535    0.160459547178   -3.610772092473
 C    0.552589973465    2.709459547178   -4.292772092473
 H    0.221589973465    3.592459547178   -3.716772092473
 H    0.437589973465    2.920459547178   -5.370772092473
 H    1.612589973465    2.507459547178   -4.072772092473
 C   -3.553410026535   -0.162540452822   -3.660772092473
 H   -3.931410026535   -0.135540452822   -4.698772092473
 H   -4.146410026535    0.536459547178   -3.044772092473
 H   -3.663410026535   -1.182540452822   -3.260772092473
CS    1.603047992307   -1.443876742540    3.865255092096
