14

 P   -1.983101666749    1.860028528854   -4.441828033379
 O   -2.570101666749    2.910028528854   -3.486828033379
 O   -2.249101666749    1.908028528854   -5.953828033379
 O   -0.320101666749    1.686028528854   -4.154828033379
 O   -2.298101666749    0.302028528854   -3.849828033379
 C    0.416898333251    2.851028528854   -4.531828033379
 H    0.085898333251    3.734028528854   -3.955828033379
 H    0.301898333251    3.062028528854   -5.609828033379
 H    1.476898333251    2.649028528854   -4.311828033379
 C   -3.689101666749   -0.020971471146   -3.899828033379
 H   -4.067101666749    0.006028528854   -4.937828033379
 H   -4.282101666749    0.678028528854   -3.283828033379
 H   -3.799101666749   -1.040971471146   -3.499828033379
CS    1.730668831582   -1.577025344976    4.090092228445
