7

 H   -1.006305606204    1.770920980775   -0.381237098010
 H    0.533253393796    1.861899980775    0.521009901990
 H    0.533253393796    1.861899980775   -1.283484098010
 C    0.049442393796    1.465379980775   -0.381237098010
 S    0.049442393796   -0.367346019225   -0.381237098010
 H    1.390025393796   -0.523737019225   -0.381237098010
NA   -0.158142478914   -0.471932910523    0.796035216618
