7

 H   -1.000703740668    1.773743352627   -0.413006856178
 H    0.538855259332    1.864722352627    0.489240143822
 H    0.538855259332    1.864722352627   -1.315253856178
 C    0.055044259332    1.468202352627   -0.413006856178
 S    0.055044259332   -0.364523647373   -0.413006856178
 H    1.395627259332   -0.520914647373   -0.413006856178
NA   -0.169839352771   -0.477826112944    0.862371484670
