7

 H   -0.989500009597    1.779388096333   -0.476546372513
 H    0.550058990403    1.870367096333    0.425700627487
 H    0.550058990403    1.870367096333   -1.378793372513
 C    0.066247990403    1.473847096333   -0.476546372513
 S    0.066247990403   -0.358878903667   -0.476546372513
 H    1.406830990403   -0.515269903667   -0.476546372513
NA   -0.193233100485   -0.489612517788    0.995044020773
