7

 H   -0.983898144062    1.782210468186   -0.508316130681
 H    0.555660855938    1.873189468186    0.393930869319
 H    0.555660855938    1.873189468186   -1.410563130681
 C    0.071849855938    1.476669468186   -0.508316130681
 S    0.071849855938   -0.356056531814   -0.508316130681
 H    1.412432855938   -0.512447531814   -0.508316130681
NA   -0.204929974342   -0.495505720210    1.061380288824
