7

 H   -0.950286950849    1.799144699304   -0.698934679686
 H    0.589272049151    1.890123699304    0.203312320314
 H    0.589272049151    1.890123699304   -1.601181679686
 C    0.105461049151    1.493603699304   -0.698934679686
 S    0.105461049151   -0.339122300696   -0.698934679686
 H    1.446044049151   -0.495513300696   -0.698934679686
NA   -0.275111217484   -0.530864934741    1.459397897133
