7

 H   -0.944685085313    1.801967071156   -0.730704437853
 H    0.594873914687    1.892946071156    0.171542562147
 H    0.594873914687    1.892946071156   -1.632951437853
 C    0.111062914687    1.496426071156   -0.730704437853
 S    0.111062914687   -0.336299928844   -0.730704437853
 H    1.451645914687   -0.492690928844   -0.730704437853
NA   -0.286808091341   -0.536758137163    1.525734165185
