7

 H   -0.916675757636    1.816078930421   -0.889553228691
 H    0.622883242364    1.907057930421    0.012693771309
 H    0.622883242364    1.907057930421   -1.791800228691
 C    0.139072242364    1.510537930421   -0.889553228691
 S    0.139072242364   -0.322188069579   -0.889553228691
 H    1.479655242364   -0.478579069579   -0.889553228691
NA   -0.345292460626   -0.566224149272    1.857415505442
