7

 H   -0.871860833351    1.838657905244   -1.143711294031
 H    0.667698166649    1.929636905244   -0.241464294031
 H    0.667698166649    1.929636905244   -2.045958294031
 C    0.183887166649    1.533116905244   -1.143711294031
 S    0.183887166649   -0.299609094756   -1.143711294031
 H    1.524470166649   -0.456000094756   -1.143711294031
NA   -0.438867451482   -0.613369768647    2.388105649854
