7

 H   -0.855055236745    1.847125020803   -1.239020568534
 H    0.684503763255    1.938104020803   -0.336773568534
 H    0.684503763255    1.938104020803   -2.141267568534
 C    0.200692763255    1.541584020803   -1.239020568534
 S    0.200692763255   -0.291141979197   -1.239020568534
 H    1.541275763255   -0.447532979197   -1.239020568534
NA   -0.473958073053   -0.631049375913    2.587114454009
