7

 H   -0.849453371209    1.849947392656   -1.270790326701
 H    0.690105628791    1.940926392656   -0.368543326701
 H    0.690105628791    1.940926392656   -2.173037326701
 C    0.206294628791    1.544406392656   -1.270790326701
 S    0.206294628791   -0.288319607344   -1.270790326701
 H    1.546877628791   -0.444710607344   -1.270790326701
NA   -0.485654946910   -0.636942578335    2.653450722060
