7

 H   -0.838249640138    1.855592136362   -1.334329843037
 H    0.701309359862    1.946571136362   -0.432082843037
 H    0.701309359862    1.946571136362   -2.236576843037
 C    0.217498359862    1.550051136362   -1.334329843037
 S    0.217498359862   -0.282674863638   -1.334329843037
 H    1.558081359862   -0.439065863638   -1.334329843037
NA   -0.509048694624   -0.648728983179    2.786123258163
