7

 H   -0.827045909067    1.861236880067   -1.397869359372
 H    0.712513090933    1.952215880067   -0.495622359372
 H    0.712513090933    1.952215880067   -2.300116359372
 C    0.228702090933    1.555695880067   -1.397869359372
 S    0.228702090933   -0.277030119933   -1.397869359372
 H    1.569285090933   -0.433421119933   -1.397869359372
NA   -0.532442442338   -0.660515388022    2.918795794266
