7

 H   -0.821444043532    1.864059251920   -1.429639117539
 H    0.718114956468    1.955038251920   -0.527392117539
 H    0.718114956468    1.955038251920   -2.331886117539
 C    0.234303956468    1.558518251920   -1.429639117539
 S    0.234303956468   -0.274207748080   -1.429639117539
 H    1.574886956468   -0.430598748080   -1.429639117539
NA   -0.544139316195   -0.666408590444    2.985132062318
