7

 H   -0.810240312461    1.869703995626   -1.493178633874
 H    0.729318687539    1.960682995626   -0.590931633874
 H    0.729318687539    1.960682995626   -2.395425633874
 C    0.245507687539    1.564162995626   -1.493178633874
 S    0.245507687539   -0.268563004374   -1.493178633874
 H    1.586090687539   -0.424954004374   -1.493178633874
NA   -0.567533063909   -0.678194995288    3.117804598421
