7

 H   -0.787832850319    1.880993483038   -1.620257666544
 H    0.751726149681    1.971972483038   -0.718010666544
 H    0.751726149681    1.971972483038   -2.522504666544
 C    0.267915149681    1.575452483038   -1.620257666544
 S    0.267915149681   -0.257273516962   -1.620257666544
 H    1.608498149681   -0.413664516962   -1.620257666544
NA   -0.614320559336   -0.701767804975    3.383149670627
