7

 H   -0.771027253712    1.889460598596   -1.715566941047
 H    0.768531746288    1.980439598596   -0.813319941047
 H    0.768531746288    1.980439598596   -2.617813941047
 C    0.284720746288    1.583919598596   -1.715566941047
 S    0.284720746288   -0.248806401404   -1.715566941047
 H    1.625303746288   -0.405197401404   -1.715566941047
NA   -0.649411180907   -0.719447412241    3.582158474781
