7

 H   -0.759823522641    1.895105342302   -1.779106457382
 H    0.779735477359    1.986084342302   -0.876859457382
 H    0.779735477359    1.986084342302   -2.681353457382
 C    0.295924477359    1.589564342302   -1.779106457382
 S    0.295924477359   -0.243161657698   -1.779106457382
 H    1.636507477359   -0.399552657698   -1.779106457382
NA   -0.672804928621   -0.731233817085    3.714831010884
