7

 H   -0.754221657105    1.897927714155   -1.810876215550
 H    0.785337342895    1.988906714155   -0.908629215550
 H    0.785337342895    1.988906714155   -2.713123215550
 C    0.301526342895    1.592386714155   -1.810876215550
 S    0.301526342895   -0.240339285845   -1.810876215550
 H    1.642109342895   -0.396730285845   -1.810876215550
NA   -0.684501802478   -0.737127019507    3.781167278936
