7

 H   -0.743017926034    1.903572457861   -1.874415731885
 H    0.796541073966    1.994551457861   -0.972168731885
 H    0.796541073966    1.994551457861   -2.776662731885
 C    0.312730073966    1.598031457861   -1.874415731885
 S    0.312730073966   -0.234694542139   -1.874415731885
 H    1.653313073966   -0.391085542139   -1.874415731885
NA   -0.707895550192   -0.748913424350    3.913839815039
