7

 H   -0.726212329428    1.912039573420   -1.969725006387
 H    0.813346670572    2.003018573420   -1.067478006387
 H    0.813346670572    2.003018573420   -2.871972006387
 C    0.329535670572    1.606498573420   -1.969725006387
 S    0.329535670572   -0.226227426580   -1.969725006387
 H    1.670118670572   -0.382618426580   -1.969725006387
NA   -0.742986171763   -0.766593031616    4.112848619193
