7

 H   -0.715008598357    1.917684317125   -2.033264522722
 H    0.824550401643    2.008663317125   -1.131017522722
 H    0.824550401643    2.008663317125   -2.935511522722
 C    0.340739401643    1.612143317125   -2.033264522722
 S    0.340739401643   -0.220582682875   -2.033264522722
 H    1.681322401643   -0.376973682875   -2.033264522722
NA   -0.766379919477   -0.778379436460    4.245521155296
