7

 H   -0.703804867286    1.923329060831   -2.096804039057
 H    0.835754132714    2.014308060831   -1.194557039057
 H    0.835754132714    2.014308060831   -2.999051039057
 C    0.351943132714    1.617788060831   -2.096804039057
 S    0.351943132714   -0.214937939169   -2.096804039057
 H    1.692526132714   -0.371328939169   -2.096804039057
NA   -0.789773667191   -0.790165841303    4.378193691399
