7

 H   -0.698203001750    1.926151432684   -2.128573797225
 H    0.841355998250    2.017130432684   -1.226326797225
 H    0.841355998250    2.017130432684   -3.030820797225
 C    0.357544998250    1.620610432684   -2.128573797225
 S    0.357544998250   -0.212115567316   -2.128573797225
 H    1.698127998250   -0.368506567316   -2.128573797225
NA   -0.801470541048   -0.796059043725    4.444529959451
