7

 H   -0.686999270679    1.931796176390   -2.192113313560
 H    0.852559729321    2.022775176390   -1.289866313560
 H    0.852559729321    2.022775176390   -3.094360313560
 C    0.368748729321    1.626255176390   -2.192113313560
 S    0.368748729321   -0.206470823610   -2.192113313560
 H    1.709331729321   -0.362861823610   -2.192113313560
NA   -0.824864288762   -0.807845448569    4.577202495554
