7

 H   -0.675795539608    1.937440920096   -2.255652829895
 H    0.863763460392    2.028419920096   -1.353405829895
 H    0.863763460392    2.028419920096   -3.157899829895
 C    0.379952460392    1.631899920096   -2.255652829895
 S    0.379952460392   -0.200826079904   -2.255652829895
 H    1.720535460392   -0.357217079904   -2.255652829895
NA   -0.848258036476   -0.819631853413    4.709875031657
