7

 H   -0.670193674073    1.940263291949   -2.287422588063
 H    0.869365325927    2.031242291949   -1.385175588063
 H    0.869365325927    2.031242291949   -3.189669588063
 C    0.385554325927    1.634722291949   -2.287422588063
 S    0.385554325927   -0.198003708051   -2.287422588063
 H    1.726137325927   -0.354394708051   -2.287422588063
NA   -0.859954910333   -0.825525055835    4.776211299708
