7

 H   -0.664591808537    1.943085663801   -2.319192346230
 H    0.874967191463    2.034064663801   -1.416945346230
 H    0.874967191463    2.034064663801   -3.221439346230
 C    0.391156191463    1.637544663801   -2.319192346230
 S    0.391156191463   -0.195181336199   -2.319192346230
 H    1.731739191463   -0.351572336199   -2.319192346230
NA   -0.871651784190   -0.831418258256    4.842547567760
