7

 H   -0.658989943002    1.945908035654   -2.350962104398
 H    0.880569056998    2.036887035654   -1.448715104398
 H    0.880569056998    2.036887035654   -3.253209104398
 C    0.396758056998    1.640367035654   -2.350962104398
 S    0.396758056998   -0.192358964346   -2.350962104398
 H    1.737341056998   -0.348749964346   -2.350962104398
NA   -0.883348658047   -0.837311460678    4.908883835811
