7

 H   -0.642184346395    1.954375151213   -2.446271378900
 H    0.897374653605    2.045354151213   -1.544024378900
 H    0.897374653605    2.045354151213   -3.348518378900
 C    0.413563653605    1.648834151213   -2.446271378900
 S    0.413563653605   -0.183891848787   -2.446271378900
 H    1.754146653605   -0.340282848787   -2.446271378900
NA   -0.918439279618   -0.854991067944    5.107892639966
