7

 H   -0.636582480860    1.957197523066   -2.478041137068
 H    0.902976519140    2.048176523066   -1.575794137068
 H    0.902976519140    2.048176523066   -3.380288137068
 C    0.419165519140    1.651656523066   -2.478041137068
 S    0.419165519140   -0.181069476934   -2.478041137068
 H    1.759748519140   -0.337460476934   -2.478041137068
NA   -0.930136153475   -0.860884270366    5.174228908017
