7

 H   -0.625378749788    1.962842266772   -2.541580653403
 H    0.914180250212    2.053821266772   -1.639333653403
 H    0.914180250212    2.053821266772   -3.443827653403
 C    0.430369250212    1.657301266772   -2.541580653403
 S    0.430369250212   -0.175424733228   -2.541580653403
 H    1.770952250212   -0.331815733228   -2.541580653403
NA   -0.953529901189   -0.872670675209    5.306901444120
