7

 H   -0.614175018717    1.968487010478   -2.605120169738
 H    0.925383981283    2.059466010478   -1.702873169738
 H    0.925383981283    2.059466010478   -3.507367169738
 C    0.441572981283    1.662946010478   -2.605120169738
 S    0.441572981283   -0.169779989522   -2.605120169738
 H    1.782155981283   -0.326170989522   -2.605120169738
NA   -0.976923648903   -0.884457080053    5.439573980223
