7

 H   -0.608573153182    1.971309382330   -2.636889927906
 H    0.930985846818    2.062288382330   -1.734642927906
 H    0.930985846818    2.062288382330   -3.539136927906
 C    0.447174846818    1.665768382330   -2.636889927906
 S    0.447174846818   -0.166957617670   -2.636889927906
 H    1.787757846818   -0.323348617670   -2.636889927906
NA   -0.988620522760   -0.890350282475    5.505910248275
