7

 H   -0.597369422111    1.976954126036   -2.700429444241
 H    0.942189577889    2.067933126036   -1.798182444241
 H    0.942189577889    2.067933126036   -3.602676444241
 C    0.458378577889    1.671413126036   -2.700429444241
 S    0.458378577889   -0.161312873964   -2.700429444241
 H    1.798961577889   -0.317703873964   -2.700429444241
NA   -1.012014270474   -0.902136687319    5.638582784378
