7

 H   -0.535748901220    2.008000216418   -3.049896784084
 H    1.003810098780    2.098979216418   -2.147649784084
 H    1.003810098780    2.098979216418   -3.952143784084
 C    0.519999098780    1.702459216418   -3.049896784084
 S    0.519999098780   -0.130266783582   -3.049896784084
 H    1.860582098780   -0.286657783582   -3.049896784084
NA   -1.140679882901   -0.966961913959    6.368281732944
