7

 H   -0.524545170149    2.013644960124   -3.113436300419
 H    1.015013829851    2.104623960124   -2.211189300419
 H    1.015013829851    2.104623960124   -4.015683300419
 C    0.531202829851    1.708103960124   -3.113436300419
 S    0.531202829851   -0.124622039876   -3.113436300419
 H    1.871785829851   -0.281013039876   -3.113436300419
NA   -1.164073630615   -0.978748318803    6.500954269047
