14

 P   -0.118210763443    0.084152464431   -0.383112547648
 O   -0.705210763443    1.134152464431    0.571887452352
 O   -0.384210763443    0.132152464431   -1.895112547648
 O    1.544789236557   -0.089847535569   -0.096112547648
 O   -0.433210763443   -1.473847535569    0.208887452352
 C    2.281789236557    1.075152464431   -0.473112547648
 H    1.950789236557    1.958152464431    0.102887452352
 H    2.166789236557    1.286152464431   -1.551112547648
 H    3.341789236557    0.873152464431   -0.253112547648
 C   -1.824210763443   -1.796847535569    0.158887452352
 H   -2.202210763443   -1.769847535569   -0.879112547648
 H   -2.417210763443   -1.097847535569    0.774887452352
 H   -1.934210763443   -2.816847535569    0.558887452352
NA   -0.134700391215    0.538931032188    1.576989119737
