14

 P   -0.125028214428    0.091265206175   -0.395123251899
 O   -0.712028214428    1.141265206175    0.559876748101
 O   -0.391028214428    0.139265206175   -1.907123251899
 O    1.537971785572   -0.082734793825   -0.108123251899
 O   -0.440028214428   -1.466734793825    0.196876748101
 C    2.274971785572    1.082265206175   -0.485123251899
 H    1.943971785572    1.965265206175    0.090876748101
 H    2.159971785572    1.293265206175   -1.563123251899
 H    3.334971785572    0.880265206175   -0.265123251899
 C   -1.831028214428   -1.789734793825    0.146876748101
 H   -2.209028214428   -1.762734793825   -0.891123251899
 H   -2.424028214428   -1.090734793825    0.762876748101
 H   -1.941028214428   -2.809734793825    0.546876748101
NA   -0.097632428952    0.500257509913    1.642293928362
