14

 P   -0.165932920339    0.133941656636   -0.467187477401
 O   -0.752932920339    1.183941656636    0.487812522599
 O   -0.431932920339    0.181941656636   -1.979187477401
 O    1.497067079661   -0.040058343364   -0.180187477401
 O   -0.480932920339   -1.424058343364    0.124812522599
 C    2.234067079661    1.124941656636   -0.557187477401
 H    1.903067079661    2.007941656636    0.018812522599
 H    2.119067079661    1.335941656636   -1.635187477401
 H    3.294067079661    0.922941656636   -0.337187477401
 C   -1.871932920339   -1.747058343364    0.074812522599
 H   -2.249932920339   -1.720058343364   -0.963187477401
 H   -2.464932920339   -1.048058343364    0.690812522599
 H   -1.981932920339   -2.767058343364    0.474812522599
NA    0.124775344626    0.268216376263    2.034122780114
