14

 P   -0.186385273295    0.155279881867   -0.503219590152
 O   -0.773385273295    1.205279881867    0.451780409848
 O   -0.452385273295    0.203279881867   -2.015219590152
 O    1.476614726705   -0.018720118133   -0.216219590152
 O   -0.501385273295   -1.402720118133    0.088780409848
 C    2.213614726705    1.146279881867   -0.593219590152
 H    1.882614726705    2.029279881867   -0.017219590152
 H    2.098614726705    1.357279881867   -1.671219590152
 H    3.273614726705    0.944279881867   -0.373219590152
 C   -1.892385273295   -1.725720118133    0.038780409848
 H   -2.270385273295   -1.698720118133   -0.999219590152
 H   -2.485385273295   -1.026720118133    0.654780409848
 H   -2.002385273295   -2.745720118133    0.438780409848
NA    0.235979231415    0.152195809437    2.230037205991
