14

 P   -0.200020175266    0.169505365354   -0.527240998652
 O   -0.787020175266    1.219505365354    0.427759001348
 O   -0.466020175266    0.217505365354   -2.039240998652
 O    1.462979824734   -0.004494634646   -0.240240998652
 O   -0.515020175266   -1.388494634646    0.064759001348
 C    2.199979824734    1.160505365354   -0.617240998652
 H    1.868979824734    2.043505365354   -0.041240998652
 H    2.084979824734    1.371505365354   -1.695240998652
 H    3.259979824734    0.958505365354   -0.397240998652
 C   -1.906020175266   -1.711494634646    0.014759001348
 H   -2.284020175266   -1.684494634646   -1.023240998652
 H   -2.499020175266   -1.012494634646    0.630759001348
 H   -2.016020175266   -2.731494634646    0.414759001348
NA    0.310115155941    0.074848764887    2.360646823241
