14

 P   -0.234107430192    0.205069074072   -0.587294519904
 O   -0.821107430192    1.255069074072    0.367705480096
 O   -0.500107430192    0.253069074072   -2.099294519904
 O    1.428892569808    0.031069074072   -0.300294519904
 O   -0.549107430192   -1.352930925928    0.004705480096
 C    2.165892569808    1.196069074072   -0.677294519904
 H    1.834892569808    2.079069074072   -0.101294519904
 H    2.050892569808    1.407069074072   -1.755294519904
 H    3.225892569808    0.994069074072   -0.457294519904
 C   -1.940107430192   -1.675930925928   -0.045294519904
 H   -2.318107430192   -1.648930925928   -1.083294519904
 H   -2.533107430192   -0.976930925928    0.570705480096
 H   -2.050107430192   -2.695930925928    0.354705480096
NA    0.495454967257   -0.118518846489    2.687170866368
