14

 P   -0.240924881177    0.212181815815   -0.599305224155
 O   -0.827924881177    1.262181815815    0.355694775845
 O   -0.506924881177    0.260181815815   -2.111305224155
 O    1.422075118823    0.038181815815   -0.312305224155
 O   -0.555924881177   -1.345818184185   -0.007305224155
 C    2.159075118823    1.203181815815   -0.689305224155
 H    1.828075118823    2.086181815815   -0.113305224155
 H    2.044075118823    1.414181815815   -1.767305224155
 H    3.219075118823    1.001181815815   -0.469305224155
 C   -1.946924881177   -1.668818184185   -0.057305224155
 H   -2.324924881177   -1.641818184185   -1.095305224155
 H   -2.539924881177   -0.969818184185    0.558694775845
 H   -2.056924881177   -2.688818184185    0.342694775845
NA    0.532522929520   -0.157192368764    2.752475674994
