14

 P   -0.247742332162    0.219294557559   -0.611315928405
 O   -0.834742332162    1.269294557559    0.343684071595
 O   -0.513742332162    0.267294557559   -2.123315928405
 O    1.415257667838    0.045294557559   -0.324315928405
 O   -0.562742332162   -1.338705442441   -0.019315928405
 C    2.152257667838    1.210294557559   -0.701315928405
 H    1.821257667838    2.093294557559   -0.125315928405
 H    2.037257667838    1.421294557559   -1.779315928405
 H    3.212257667838    1.008294557559   -0.481315928405
 C   -1.953742332162   -1.661705442441   -0.069315928405
 H   -2.331742332162   -1.634705442441   -1.107315928405
 H   -2.546742332162   -0.962705442441    0.546684071595
 H   -2.063742332162   -2.681705442441    0.330684071595
NA    0.569590891783   -0.195865891039    2.817780483619
