14

 P   -0.268194685118    0.240632782790   -0.647348041156
 O   -0.855194685118    1.290632782790    0.307651958844
 O   -0.534194685118    0.288632782790   -2.159348041156
 O    1.394805314882    0.066632782790   -0.360348041156
 O   -0.583194685118   -1.317367217210   -0.055348041156
 C    2.131805314882    1.231632782790   -0.737348041156
 H    1.800805314882    2.114632782790   -0.161348041156
 H    2.016805314882    1.442632782790   -1.815348041156
 H    3.191805314882    1.029632782790   -0.517348041156
 C   -1.974194685118   -1.640367217210   -0.105348041156
 H   -2.352194685118   -1.613367217210   -1.143348041156
 H   -2.567194685118   -0.941367217210    0.510651958844
 H   -2.084194685118   -2.660367217210    0.294651958844
NA    0.680794778572   -0.311886457864    3.013694909495
