14

 P   -0.275012136103    0.247745524533   -0.659358745406
 O   -0.862012136103    1.297745524533    0.295641254594
 O   -0.541012136103    0.295745524533   -2.171358745406
 O    1.387987863897    0.073745524533   -0.372358745406
 O   -0.590012136103   -1.310254475467   -0.067358745406
 C    2.124987863897    1.238745524533   -0.749358745406
 H    1.793987863897    2.121745524533   -0.173358745406
 H    2.009987863897    1.449745524533   -1.827358745406
 H    3.184987863897    1.036745524533   -0.529358745406
 C   -1.981012136103   -1.633254475467   -0.117358745406
 H   -2.359012136103   -1.606254475467   -1.155358745406
 H   -2.574012136103   -0.934254475467    0.498641254594
 H   -2.091012136103   -2.653254475467    0.282641254594
NA    0.717862740835   -0.350559980139    3.078999718121
