14

 P   -0.281829587088    0.254858266277   -0.671369449657
 O   -0.868829587088    1.304858266277    0.283630550343
 O   -0.547829587088    0.302858266277   -2.183369449657
 O    1.381170412912    0.080858266277   -0.384369449657
 O   -0.596829587088   -1.303141733723   -0.079369449657
 C    2.118170412912    1.245858266277   -0.761369449657
 H    1.787170412912    2.128858266277   -0.185369449657
 H    2.003170412912    1.456858266277   -1.839369449657
 H    3.178170412912    1.043858266277   -0.541369449657
 C   -1.987829587088   -1.626141733723   -0.129369449657
 H   -2.365829587088   -1.599141733723   -1.167369449657
 H   -2.580829587088   -0.927141733723    0.486630550343
 H   -2.097829587088   -2.646141733723    0.270630550343
NA    0.754930703098   -0.389233502414    3.144304526746
