14

 P   -0.288647038074    0.261971008020   -0.683380153907
 O   -0.875647038074    1.311971008020    0.271619846093
 O   -0.554647038074    0.309971008020   -2.195380153907
 O    1.374352961926    0.087971008020   -0.396380153907
 O   -0.603647038074   -1.296028991980   -0.091380153907
 C    2.111352961926    1.252971008020   -0.773380153907
 H    1.780352961926    2.135971008020   -0.197380153907
 H    1.996352961926    1.463971008020   -1.851380153907
 H    3.171352961926    1.050971008020   -0.553380153907
 C   -1.994647038074   -1.619028991980   -0.141380153907
 H   -2.372647038074   -1.592028991980   -1.179380153907
 H   -2.587647038074   -0.920028991980    0.474619846093
 H   -2.104647038074   -2.639028991980    0.258619846093
NA    0.791998665361   -0.427907024689    3.209609335372
