14

 P   -0.295464489059    0.269083749764   -0.695390858157
 O   -0.882464489059    1.319083749764    0.259609141843
 O   -0.561464489059    0.317083749764   -2.207390858157
 O    1.367535510941    0.095083749764   -0.408390858157
 O   -0.610464489059   -1.288916250236   -0.103390858157
 C    2.104535510941    1.260083749764   -0.785390858157
 H    1.773535510941    2.143083749764   -0.209390858157
 H    1.989535510941    1.471083749764   -1.863390858157
 H    3.164535510941    1.058083749764   -0.565390858157
 C   -2.001464489059   -1.611916250236   -0.153390858157
 H   -2.379464489059   -1.584916250236   -1.191390858157
 H   -2.594464489059   -0.912916250236    0.462609141843
 H   -2.111464489059   -2.631916250236    0.246609141843
NA    0.829066627624   -0.466580546964    3.274914143997
