14

 P   -0.315916842015    0.290421974995   -0.731422970908
 O   -0.902916842015    1.340421974995    0.223577029092
 O   -0.581916842015    0.338421974995   -2.243422970908
 O    1.347083157985    0.116421974995   -0.444422970908
 O   -0.630916842015   -1.267578025005   -0.139422970908
 C    2.084083157985    1.281421974995   -0.821422970908
 H    1.753083157985    2.164421974995   -0.245422970908
 H    1.969083157985    1.492421974995   -1.899422970908
 H    3.144083157985    1.079421974995   -0.601422970908
 C   -2.021916842015   -1.590578025005   -0.189422970908
 H   -2.399916842015   -1.563578025005   -1.227422970908
 H   -2.614916842015   -0.891578025005    0.426577029092
 H   -2.131916842015   -2.610578025005    0.210577029092
NA    0.940270514413   -0.582601113790    3.470828569873
