14

 P   -0.336369194970    0.311760200225   -0.767455083659
 O   -0.923369194970    1.361760200225    0.187544916341
 O   -0.602369194970    0.359760200225   -2.279455083659
 O    1.326630805030    0.137760200225   -0.480455083659
 O   -0.651369194970   -1.246239799775   -0.175455083659
 C    2.063630805030    1.302760200225   -0.857455083659
 H    1.732630805030    2.185760200225   -0.281455083659
 H    1.948630805030    1.513760200225   -1.935455083659
 H    3.123630805030    1.100760200225   -0.637455083659
 C   -2.042369194970   -1.569239799775   -0.225455083659
 H   -2.420369194970   -1.542239799775   -1.263455083659
 H   -2.635369194970   -0.870239799775    0.390544916341
 H   -2.152369194970   -2.589239799775    0.174544916341
NA    1.051474401202   -0.698621680615    3.666742995749
