14

 P   -0.343186645956    0.318872941969   -0.779465787910
 O   -0.930186645956    1.368872941969    0.175534212090
 O   -0.609186645956    0.366872941969   -2.291465787910
 O    1.319813354044    0.144872941969   -0.492465787910
 O   -0.658186645956   -1.239127058031   -0.187465787910
 C    2.056813354044    1.309872941969   -0.869465787910
 H    1.725813354044    2.192872941969   -0.293465787910
 H    1.941813354044    1.520872941969   -1.947465787910
 H    3.116813354044    1.107872941969   -0.649465787910
 C   -2.049186645956   -1.562127058031   -0.237465787910
 H   -2.427186645956   -1.535127058031   -1.275465787910
 H   -2.642186645956   -0.863127058031    0.378534212090
 H   -2.159186645956   -2.582127058031    0.162534212090
NA    1.088542363465   -0.737295202890    3.732047804375
