14

 P   -0.363638998911    0.340211167200   -0.815497900661
 O   -0.950638998911    1.390211167200    0.139502099339
 O   -0.629638998911    0.388211167200   -2.327497900661
 O    1.299361001089    0.166211167200   -0.528497900661
 O   -0.678638998911   -1.217788832800   -0.223497900661
 C    2.036361001089    1.331211167200   -0.905497900661
 H    1.705361001089    2.214211167200   -0.329497900661
 H    1.921361001089    1.542211167200   -1.983497900661
 H    3.096361001089    1.129211167200   -0.685497900661
 C   -2.069638998911   -1.540788832800   -0.273497900661
 H   -2.447638998911   -1.513788832800   -1.311497900661
 H   -2.662638998911   -0.841788832800    0.342502099339
 H   -2.179638998911   -2.560788832800    0.126502099339
NA    1.199746250254   -0.853315769715    3.927962230251
