14

 P   -0.370456449897    0.347323908943   -0.827508604911
 O   -0.957456449897    1.397323908943    0.127491395089
 O   -0.636456449897    0.395323908943   -2.339508604911
 O    1.292543550103    0.173323908943   -0.540508604911
 O   -0.685456449897   -1.210676091057   -0.235508604911
 C    2.029543550103    1.338323908943   -0.917508604911
 H    1.698543550103    2.221323908943   -0.341508604911
 H    1.914543550103    1.549323908943   -1.995508604911
 H    3.089543550103    1.136323908943   -0.697508604911
 C   -2.076456449897   -1.533676091057   -0.285508604911
 H   -2.454456449897   -1.506676091057   -1.323508604911
 H   -2.669456449897   -0.834676091057    0.330491395089
 H   -2.186456449897   -2.553676091057    0.114491395089
NA    1.236814212517   -0.891989291991    3.993267038876
