14

 P   -0.452265861720    0.432676809866   -0.971637055916
 O   -1.039265861720    1.482676809866   -0.016637055916
 O   -0.718265861720    0.480676809866   -2.483637055916
 O    1.210734138280    0.258676809866   -0.684637055916
 O   -0.767265861720   -1.125323190134   -0.379637055916
 C    1.947734138280    1.423676809866   -1.061637055916
 H    1.616734138280    2.306676809866   -0.485637055916
 H    1.832734138280    1.634676809866   -2.139637055916
 H    3.007734138280    1.221676809866   -0.841637055916
 C   -2.158265861720   -1.448323190134   -0.429637055916
 H   -2.536265861720   -1.421323190134   -1.467637055916
 H   -2.751265861720   -0.749323190134    0.186362944084
 H   -2.268265861720   -2.468323190134   -0.029637055916
NA    1.681629759673   -1.356071559292    4.776924742381
