14

 P   -0.459083312705    0.439789551609   -0.983647760166
 O   -1.046083312705    1.489789551609   -0.028647760166
 O   -0.725083312705    0.487789551609   -2.495647760166
 O    1.203916687295    0.265789551609   -0.696647760166
 O   -0.774083312705   -1.118210448391   -0.391647760166
 C    1.940916687295    1.430789551609   -1.073647760166
 H    1.609916687295    2.313789551609   -0.497647760166
 H    1.825916687295    1.641789551609   -2.151647760166
 H    3.000916687295    1.228789551609   -0.853647760166
 C   -2.165083312705   -1.441210448391   -0.441647760166
 H   -2.543083312705   -1.414210448391   -1.479647760166
 H   -2.758083312705   -0.742210448391    0.174352239834
 H   -2.275083312705   -2.461210448391   -0.041647760166
NA    1.718697721936   -1.394745081567    4.842229551006
