14

 P   -0.465900763690    0.446902293353   -0.995658464416
 O   -1.052900763690    1.496902293353   -0.040658464416
 O   -0.731900763690    0.494902293353   -2.507658464416
 O    1.197099236310    0.272902293353   -0.708658464416
 O   -0.780900763690   -1.111097706647   -0.403658464416
 C    1.934099236310    1.437902293353   -1.085658464416
 H    1.603099236310    2.320902293353   -0.509658464416
 H    1.819099236310    1.648902293353   -2.163658464416
 H    2.994099236310    1.235902293353   -0.865658464416
 C   -2.171900763690   -1.434097706647   -0.453658464416
 H   -2.549900763690   -1.407097706647   -1.491658464416
 H   -2.764900763690   -0.735097706647    0.162341535584
 H   -2.281900763690   -2.454097706647   -0.053658464416
NA    1.755765684199   -1.433418603842    4.907534359632
