14

 P   -0.479535665661    0.461127776840   -1.019679872917
 O   -1.066535665661    1.511127776840   -0.064679872917
 O   -0.745535665661    0.509127776840   -2.531679872917
 O    1.183464334339    0.287127776840   -0.732679872917
 O   -0.794535665661   -1.096872223160   -0.427679872917
 C    1.920464334339    1.452127776840   -1.109679872917
 H    1.589464334339    2.335127776840   -0.533679872917
 H    1.805464334339    1.663127776840   -2.187679872917
 H    2.980464334339    1.250127776840   -0.889679872917
 C   -2.185535665661   -1.419872223160   -0.477679872917
 H   -2.563535665661   -1.392872223160   -1.515679872917
 H   -2.778535665661   -0.720872223160    0.138320127083
 H   -2.295535665661   -2.439872223160   -0.077679872917
NA    1.829901608726   -1.510765648392    5.038143976883
