14

 P   -0.486353116646    0.468240518584   -1.031690577167
 O   -1.073353116646    1.518240518584   -0.076690577167
 O   -0.752353116646    0.516240518584   -2.543690577167
 O    1.176646883354    0.294240518584   -0.744690577167
 O   -0.801353116646   -1.089759481416   -0.439690577167
 C    1.913646883354    1.459240518584   -1.121690577167
 H    1.582646883354    2.342240518584   -0.545690577167
 H    1.798646883354    1.670240518584   -2.199690577167
 H    2.973646883354    1.257240518584   -0.901690577167
 C   -2.192353116646   -1.412759481416   -0.489690577167
 H   -2.570353116646   -1.385759481416   -1.527690577167
 H   -2.785353116646   -0.713759481416    0.126309422833
 H   -2.302353116646   -2.432759481416   -0.089690577167
NA    1.866969570989   -1.549439170667    5.103448785508
