14

 P   -0.520440371572    0.503804227302   -1.091744098419
 O   -1.107440371572    1.553804227302   -0.136744098419
 O   -0.786440371572    0.551804227302   -2.603744098419
 O    1.142559628428    0.329804227302   -0.804744098419
 O   -0.835440371572   -1.054195772698   -0.499744098419
 C    1.879559628428    1.494804227302   -1.181744098419
 H    1.548559628428    2.377804227302   -0.605744098419
 H    1.764559628428    1.705804227302   -2.259744098419
 H    2.939559628428    1.292804227302   -0.961744098419
 C   -2.226440371572   -1.377195772698   -0.549744098419
 H   -2.604440371572   -1.350195772698   -1.587744098419
 H   -2.819440371572   -0.678195772698    0.066255901581
 H   -2.336440371572   -2.397195772698   -0.149744098419
NA    2.052309382304   -1.742806782043    5.429972828635
