14

 P   -0.527257822557    0.510916969045   -1.103754802669
 O   -1.114257822557    1.560916969045   -0.148754802669
 O   -0.793257822557    0.558916969045   -2.615754802669
 O    1.135742177443    0.336916969045   -0.816754802669
 O   -0.842257822557   -1.047083030955   -0.511754802669
 C    1.872742177443    1.501916969045   -1.193754802669
 H    1.541742177443    2.384916969045   -0.617754802669
 H    1.757742177443    1.712916969045   -2.271754802669
 H    2.932742177443    1.299916969045   -0.973754802669
 C   -2.233257822557   -1.370083030955   -0.561754802669
 H   -2.611257822557   -1.343083030955   -1.599754802669
 H   -2.826257822557   -0.671083030955    0.054245197331
 H   -2.343257822557   -2.390083030955   -0.161754802669
NA    2.089377344567   -1.781480304318    5.495277637260
