14

 P   -0.554527626498    0.539367936019   -1.151797619671
 O   -1.141527626498    1.589367936019   -0.196797619671
 O   -0.820527626498    0.587367936019   -2.663797619671
 O    1.108472373502    0.365367936019   -0.864797619671
 O   -0.869527626498   -1.018632063981   -0.559797619671
 C    1.845472373502    1.530367936019   -1.241797619671
 H    1.514472373502    2.413367936019   -0.665797619671
 H    1.730472373502    1.741367936019   -2.319797619671
 H    2.905472373502    1.328367936019   -1.021797619671
 C   -2.260527626498   -1.341632063981   -0.609797619671
 H   -2.638527626498   -1.314632063981   -1.647797619671
 H   -2.853527626498   -0.642632063981    0.006202380329
 H   -2.370527626498   -2.361632063981   -0.209797619671
NA    2.237649193619   -1.936174393418    5.756496871762
