14

 P   -0.561345077484    0.546480677763   -1.163808323921
 O   -1.148345077484    1.596480677763   -0.208808323921
 O   -0.827345077484    0.594480677763   -2.675808323921
 O    1.101654922516    0.372480677763   -0.876808323921
 O   -0.876345077484   -1.011519322237   -0.571808323921
 C    1.838654922516    1.537480677763   -1.253808323921
 H    1.507654922516    2.420480677763   -0.677808323921
 H    1.723654922516    1.748480677763   -2.331808323921
 H    2.898654922516    1.335480677763   -1.033808323921
 C   -2.267345077484   -1.334519322237   -0.621808323921
 H   -2.645345077484   -1.307519322237   -1.659808323921
 H   -2.860345077484   -0.635519322237   -0.005808323921
 H   -2.377345077484   -2.354519322237   -0.221808323921
NA    2.274717155882   -1.974847915693    5.821801680387
