14

 P   -0.568162528469    0.553593419507   -1.175819028172
 O   -1.155162528469    1.603593419507   -0.220819028172
 O   -0.834162528469    0.601593419507   -2.687819028172
 O    1.094837471531    0.379593419507   -0.888819028172
 O   -0.883162528469   -1.004406580493   -0.583819028172
 C    1.831837471531    1.544593419507   -1.265819028172
 H    1.500837471531    2.427593419507   -0.689819028172
 H    1.716837471531    1.755593419507   -2.343819028172
 H    2.891837471531    1.342593419507   -1.045819028172
 C   -2.274162528469   -1.327406580493   -0.633819028172
 H   -2.652162528469   -1.300406580493   -1.671819028172
 H   -2.867162528469   -0.628406580493   -0.017819028172
 H   -2.384162528469   -2.347406580493   -0.233819028172
NA    2.311785118145   -2.013521437968    5.887106489013
