14

 P   -0.574979979454    0.560706161250   -1.187829732422
 O   -1.161979979454    1.610706161250   -0.232829732422
 O   -0.840979979454    0.608706161250   -2.699829732422
 O    1.088020020546    0.386706161250   -0.900829732422
 O   -0.889979979454   -0.997293838750   -0.595829732422
 C    1.825020020546    1.551706161250   -1.277829732422
 H    1.494020020546    2.434706161250   -0.701829732422
 H    1.710020020546    1.762706161250   -2.355829732422
 H    2.885020020546    1.349706161250   -1.057829732422
 C   -2.280979979454   -1.320293838750   -0.645829732422
 H   -2.658979979454   -1.293293838750   -1.683829732422
 H   -2.873979979454   -0.621293838750   -0.029829732422
 H   -2.390979979454   -2.340293838750   -0.245829732422
NA    2.348853080408   -2.052194960244    5.952411297638
