14

 P   -0.588614881425    0.574931644737   -1.211851140923
 O   -1.175614881425    1.624931644737   -0.256851140923
 O   -0.854614881425    0.622931644737   -2.723851140923
 O    1.074385118575    0.400931644737   -0.924851140923
 O   -0.903614881425   -0.983068355263   -0.619851140923
 C    1.811385118575    1.565931644737   -1.301851140923
 H    1.480385118575    2.448931644737   -0.725851140923
 H    1.696385118575    1.776931644737   -2.379851140923
 H    2.871385118575    1.363931644737   -1.081851140923
 C   -2.294614881425   -1.306068355263   -0.669851140923
 H   -2.672614881425   -1.279068355263   -1.707851140923
 H   -2.887614881425   -0.607068355263   -0.053851140923
 H   -2.404614881425   -2.326068355263   -0.269851140923
NA    2.422989004934   -2.129542004794    6.083020914889
