14

 P   -0.595432332410    0.582044386481   -1.223861845173
 O   -1.182432332410    1.632044386481   -0.268861845173
 O   -0.861432332410    0.630044386481   -2.735861845173
 O    1.067567667590    0.408044386481   -0.936861845173
 O   -0.910432332410   -0.975955613519   -0.631861845173
 C    1.804567667590    1.573044386481   -1.313861845173
 H    1.473567667590    2.456044386481   -0.737861845173
 H    1.689567667590    1.784044386481   -2.391861845173
 H    2.864567667590    1.371044386481   -1.093861845173
 C   -2.301432332410   -1.298955613519   -0.681861845173
 H   -2.679432332410   -1.271955613519   -1.719861845173
 H   -2.894432332410   -0.599955613519   -0.065861845173
 H   -2.411432332410   -2.318955613519   -0.281861845173
NA    2.460056967197   -2.168215527069    6.148325723514
