14

 P   -0.609067234380    0.596269869968   -1.247883253674
 O   -1.196067234380    1.646269869968   -0.292883253674
 O   -0.875067234380    0.644269869968   -2.759883253674
 O    1.053932765620    0.422269869968   -0.960883253674
 O   -0.924067234380   -0.961730130032   -0.655883253674
 C    1.790932765620    1.587269869968   -1.337883253674
 H    1.459932765620    2.470269869968   -0.761883253674
 H    1.675932765620    1.798269869968   -2.415883253674
 H    2.850932765620    1.385269869968   -1.117883253674
 C   -2.315067234380   -1.284730130032   -0.705883253674
 H   -2.693067234380   -1.257730130032   -1.743883253674
 H   -2.908067234380   -0.585730130032   -0.089883253674
 H   -2.425067234380   -2.304730130032   -0.305883253674
NA    2.534192891723   -2.245562571619    6.278935340765
