14

 P   -0.663606842262    0.653171803917   -1.343968887677
 O   -1.250606842262    1.703171803917   -0.388968887677
 O   -0.929606842262    0.701171803917   -2.855968887677
 O    0.999393157738    0.479171803917   -1.056968887677
 O   -0.978606842262   -0.904828196083   -0.751968887677
 C    1.736393157738    1.644171803917   -1.433968887677
 H    1.405393157738    2.527171803917   -0.857968887677
 H    1.621393157738    1.855171803917   -2.511968887677
 H    2.796393157738    1.442171803917   -1.213968887677
 C   -2.369606842262   -1.227828196083   -0.801968887677
 H   -2.747606842262   -1.200828196083   -1.839968887677
 H   -2.962606842262   -0.528828196083   -0.185968887677
 H   -2.479606842262   -2.247828196083   -0.401968887677
NA    2.830736589827   -2.554950749820    6.801373809768
