14

 P   -0.677241744233    0.667397287404   -1.367990296177
 O   -1.264241744233    1.717397287404   -0.412990296177
 O   -0.943241744233    0.715397287404   -2.879990296177
 O    0.985758255767    0.493397287404   -1.080990296177
 O   -0.992241744233   -0.890602712596   -0.775990296177
 C    1.722758255767    1.658397287404   -1.457990296177
 H    1.391758255767    2.541397287404   -0.881990296177
 H    1.607758255767    1.869397287404   -2.535990296177
 H    2.782758255767    1.456397287404   -1.237990296177
 C   -2.383241744233   -1.213602712596   -0.825990296177
 H   -2.761241744233   -1.186602712596   -1.863990296177
 H   -2.976241744233   -0.514602712596   -0.209990296177
 H   -2.493241744233   -2.233602712596   -0.425990296177
NA    2.904872514353   -2.632297794370    6.931983427019
