14

 P   -0.704511548174    0.695848254378   -1.416033113179
 O   -1.291511548174    1.745848254378   -0.461033113179
 O   -0.970511548174    0.743848254378   -2.928033113179
 O    0.958488451826    0.521848254378   -1.129033113179
 O   -1.019511548174   -0.862151745622   -0.824033113179
 C    1.695488451826    1.686848254378   -1.506033113179
 H    1.364488451826    2.569848254378   -0.930033113179
 H    1.580488451826    1.897848254378   -2.584033113179
 H    2.755488451826    1.484848254378   -1.286033113179
 C   -2.410511548174   -1.185151745622   -0.874033113179
 H   -2.788511548174   -1.158151745622   -1.912033113179
 H   -3.003511548174   -0.486151745622   -0.258033113179
 H   -2.520511548174   -2.205151745622   -0.474033113179
NA    3.053144363405   -2.786991883471    7.193202661521
