8

 C    0.850546584700   -1.870676837927   -0.831010712192
 H    1.886046584700   -2.246764837927   -0.831010712192
 H    0.317346584700   -2.251379837927    0.057326287808
 H    0.317346584700   -2.251379837927   -1.719347712192
 C    0.808780584700   -0.314592837927   -0.831010712192
 O   -0.358415415300    0.191630162073   -0.831010712192
 O    1.932851584700    0.280825162073   -0.831010712192
CS   -0.358415415300    0.191630162073    0.368989287808
