8

 C    0.850546584700   -1.870676837927   -1.246516068288
 H    1.886046584700   -2.246764837927   -1.246516068288
 H    0.317346584700   -2.251379837927   -0.358179068288
 H    0.317346584700   -2.251379837927   -2.134853068288
 C    0.808780584700   -0.314592837927   -1.246516068288
 O   -0.358415415300    0.191630162073   -1.246516068288
 O    1.932851584700    0.280825162073   -1.246516068288
CS   -0.358415415300    0.191630162073    0.553483931712
