8

 C    0.850546584700   -1.870676837927   -1.454268746336
 H    1.886046584700   -2.246764837927   -1.454268746336
 H    0.317346584700   -2.251379837927   -0.565931746336
 H    0.317346584700   -2.251379837927   -2.342605746336
 C    0.808780584700   -0.314592837927   -1.454268746336
 O   -0.358415415300    0.191630162073   -1.454268746336
 O    1.932851584700    0.280825162073   -1.454268746336
CS   -0.358415415300    0.191630162073    0.645731253664
