8

 C    0.850546584700   -1.870676837927   -2.770035707306
 H    1.886046584700   -2.246764837927   -2.770035707306
 H    0.317346584700   -2.251379837927   -1.881698707306
 H    0.317346584700   -2.251379837927   -3.658372707306
 C    0.808780584700   -0.314592837927   -2.770035707306
 O   -0.358415415300    0.191630162073   -2.770035707306
 O    1.932851584700    0.280825162073   -2.770035707306
CS   -0.358415415300    0.191630162073    1.229964292694
