8

 C    0.850546584700   -1.870676837927   -2.839286599989
 H    1.886046584700   -2.246764837927   -2.839286599989
 H    0.317346584700   -2.251379837927   -1.950949599989
 H    0.317346584700   -2.251379837927   -3.727623599989
 C    0.808780584700   -0.314592837927   -2.839286599989
 O   -0.358415415300    0.191630162073   -2.839286599989
 O    1.932851584700    0.280825162073   -2.839286599989
CS   -0.358415415300    0.191630162073    1.260713400011
