8

 C    0.850546584700   -1.870676837927   -2.977788385354
 H    1.886046584700   -2.246764837927   -2.977788385354
 H    0.317346584700   -2.251379837927   -2.089451385354
 H    0.317346584700   -2.251379837927   -3.866125385354
 C    0.808780584700   -0.314592837927   -2.977788385354
 O   -0.358415415300    0.191630162073   -2.977788385354
 O    1.932851584700    0.280825162073   -2.977788385354
CS   -0.358415415300    0.191630162073    1.322211614646
