8

 C    0.850546584700   -1.870676837927   -3.047039278037
 H    1.886046584700   -2.246764837927   -3.047039278037
 H    0.317346584700   -2.251379837927   -2.158702278037
 H    0.317346584700   -2.251379837927   -3.935376278037
 C    0.808780584700   -0.314592837927   -3.047039278037
 O   -0.358415415300    0.191630162073   -3.047039278037
 O    1.932851584700    0.280825162073   -3.047039278037
CS   -0.358415415300    0.191630162073    1.352960721963
