8

 C    0.850546584700   -1.870676837927   -3.324042848767
 H    1.886046584700   -2.246764837927   -3.324042848767
 H    0.317346584700   -2.251379837927   -2.435705848767
 H    0.317346584700   -2.251379837927   -4.212379848767
 C    0.808780584700   -0.314592837927   -3.324042848767
 O   -0.358415415300    0.191630162073   -3.324042848767
 O    1.932851584700    0.280825162073   -3.324042848767
CS   -0.358415415300    0.191630162073    1.475957151233
