8

 C    0.850546584700   -1.870676837927   -4.362806239007
 H    1.886046584700   -2.246764837927   -4.362806239007
 H    0.317346584700   -2.251379837927   -3.474469239007
 H    0.317346584700   -2.251379837927   -5.251143239007
 C    0.808780584700   -0.314592837927   -4.362806239007
 O   -0.358415415300    0.191630162073   -4.362806239007
 O    1.932851584700    0.280825162073   -4.362806239007
CS   -0.358415415300    0.191630162073    1.937193760993
