8

 C    0.850546584700   -1.870676837927   -4.432057131690
 H    1.886046584700   -2.246764837927   -4.432057131690
 H    0.317346584700   -2.251379837927   -3.543720131690
 H    0.317346584700   -2.251379837927   -5.320394131690
 C    0.808780584700   -0.314592837927   -4.432057131690
 O   -0.358415415300    0.191630162073   -4.432057131690
 O    1.932851584700    0.280825162073   -4.432057131690
CS   -0.358415415300    0.191630162073    1.967942868310
