8

 C    0.850546584700   -1.870676837927   -5.747824092660
 H    1.886046584700   -2.246764837927   -5.747824092660
 H    0.317346584700   -2.251379837927   -4.859487092660
 H    0.317346584700   -2.251379837927   -6.636161092660
 C    0.808780584700   -0.314592837927   -5.747824092660
 O   -0.358415415300    0.191630162073   -5.747824092660
 O    1.932851584700    0.280825162073   -5.747824092660
CS   -0.358415415300    0.191630162073    2.552175907340
