8

 C    0.850546584700   -1.870676837927   -6.232580341439
 H    1.886046584700   -2.246764837927   -6.232580341439
 H    0.317346584700   -2.251379837927   -5.344243341439
 H    0.317346584700   -2.251379837927   -7.120917341439
 C    0.808780584700   -0.314592837927   -6.232580341439
 O   -0.358415415300    0.191630162073   -6.232580341439
 O    1.932851584700    0.280825162073   -6.232580341439
CS   -0.358415415300    0.191630162073    2.767419658561
