8

 C    0.850546584700   -1.870676837927   -6.578834804852
 H    1.886046584700   -2.246764837927   -6.578834804852
 H    0.317346584700   -2.251379837927   -5.690497804852
 H    0.317346584700   -2.251379837927   -7.467171804852
 C    0.808780584700   -0.314592837927   -6.578834804852
 O   -0.358415415300    0.191630162073   -6.578834804852
 O    1.932851584700    0.280825162073   -6.578834804852
CS   -0.358415415300    0.191630162073    2.921165195148
