34

 N    0.533713969425   -4.728625619392   -0.279685271713
 C    1.542323969425   -3.813575619392   -0.106295271713
 N    2.860483969425   -4.079295619392    0.011104728287
 C    3.588043969425   -2.986285619392    0.175254728287
 N    3.036953969425   -1.709885619392    0.212864728287
 H    3.648833969425   -0.911695619392    0.371914728287
 N    4.927073969425   -3.085695619392    0.359554728287
 H    5.543353969425   -2.288855619392    0.273954728287
 H    5.332853969425   -4.008505619392    0.254084728287
 C    1.686173969425   -1.400325619392    0.093434728287
 O    1.307403969425   -0.196015619392    0.154594728287
 C    0.890853969425   -2.567215619392   -0.087155271713
 N   -0.479786030575   -2.719245619392   -0.243725271713
 C   -0.649596030575   -4.037025619392   -0.356345271713
 H   -1.607056030575   -4.532435619392   -0.493815271713
 H    0.654303969425   -5.737185619392   -0.337945271713
 K    0.719303969425    2.209224380608    0.259104728287
 K   -1.375876030575   -0.317135619392   -0.194875271713
 C   -0.721484216619    2.079144319171    0.070581801510
 N    0.649150154169    2.231176566881    0.227151361997
 C    0.818961010340    3.548955978169    0.339774316633
 H    1.776426992410    4.044366639334    0.477237776804
 N   -0.364350607567    4.240557134590    0.263115573068
 H   -0.484938647764    5.249113889592    0.321381382945
 C   -1.372959114109    3.325497183148    0.089726324849
 C   -1.516804798145    0.912254518095   -0.110008030003
 O   -1.138038205004   -0.292046132026   -0.171164678358
 N   -2.867591668469    1.221814659912   -0.229429272502
 H   -3.479474354649    0.423620388266   -0.388483290577
 C   -3.418675743507    2.498211384066   -0.191818517286
 N   -2.691121442833    3.591227277374   -0.027668908248
 N   -4.757712159229    2.597619471450   -0.376113676289
 H   -5.373988030823    1.800777167975   -0.290516048499
 H   -5.163496712605    3.520430925404   -0.270649915723
