34

 N    0.572785189281   -4.841219213133   -0.283507658307
 C    1.581395189281   -3.926169213133   -0.110117658307
 N    2.899555189281   -4.191889213133    0.007282341693
 C    3.627115189281   -3.098879213133    0.171432341693
 N    3.076025189281   -1.822479213133    0.209042341693
 H    3.687905189281   -1.024289213133    0.368092341693
 N    4.966145189281   -3.198289213133    0.355732341693
 H    5.582425189281   -2.401449213133    0.270132341693
 H    5.371925189281   -4.121099213133    0.250262341693
 C    1.725245189281   -1.512919213133    0.089612341693
 O    1.346475189281   -0.308609213133    0.150772341693
 C    0.929925189281   -2.679809213133   -0.090977658307
 N   -0.440714810719   -2.831839213133   -0.247547658307
 C   -0.610524810719   -4.149619213133   -0.360167658307
 H   -1.567984810719   -4.645029213133   -0.497637658307
 H    0.693375189281   -5.849779213133   -0.341767658307
 K    0.758375189281    2.096630786867    0.255282341693
 K   -1.336804810719   -0.429729213133   -0.198697658307
 C   -0.780712543273    2.249825710070    0.076376183222
 N    0.589921827515    2.401857957781    0.232945743709
 C    0.759732683686    3.719637369069    0.345568698345
 H    1.717198665756    4.215048030234    0.483032158516
 N   -0.423578934221    4.411238525489    0.268909954780
 H   -0.544166974418    5.419795280492    0.327175764657
 C   -1.432187440763    3.496178574047    0.095520706561
 C   -1.576033124800    1.082935908995   -0.104213648291
 O   -1.197266531658   -0.121364741126   -0.165370296646
 N   -2.926819995123    1.392496050811   -0.223634890791
 H   -3.538702681303    0.594301779166   -0.382688908865
 C   -3.477904070161    2.668892774965   -0.186024135574
 N   -2.750349769488    3.761908668274   -0.021874526537
 N   -4.816940485883    2.768300862349   -0.370319294577
 H   -5.433216357478    1.971458558874   -0.284721666788
 H   -5.222725039259    3.691112316304   -0.264855534012
