34

 N    0.585808929233   -4.878750411046   -0.284781787172
 C    1.594418929233   -3.963700411046   -0.111391787172
 N    2.912578929233   -4.229420411046    0.006008212828
 C    3.640138929233   -3.136410411046    0.170158212828
 N    3.089048929233   -1.860010411046    0.207768212828
 H    3.700928929233   -1.061820411046    0.366818212828
 N    4.979168929233   -3.235820411046    0.354458212828
 H    5.595448929233   -2.438980411046    0.268858212828
 H    5.384948929233   -4.158630411046    0.248988212828
 C    1.738268929233   -1.550450411046    0.088338212828
 O    1.359498929233   -0.346140411046    0.149498212828
 C    0.942948929233   -2.717340411046   -0.092251787172
 N   -0.427691070767   -2.869370411046   -0.248821787172
 C   -0.597501070767   -4.187150411046   -0.361441787172
 H   -1.554961070767   -4.682560411046   -0.498911787172
 H    0.706398929233   -5.887310411046   -0.343041787172
 K    0.771398929233    2.059099588954    0.254008212828
 K   -1.323781070767   -0.467260411046   -0.199971787172
 C   -0.800455318825    2.306719507037    0.078307643793
 N    0.570179051963    2.458751754747    0.234877204279
 C    0.739989908134    3.776531166035    0.347500158916
 H    1.697455890205    4.271941827200    0.484963619086
 N   -0.443321709772    4.468132322456    0.270841415350
 H   -0.563909749969    5.476689077458    0.329107225228
 C   -1.451930216314    3.553072371014    0.097452167132
 C   -1.595775900351    1.139829705961   -0.102282187721
 O   -1.217009307209   -0.064470944160   -0.163438836076
 N   -2.946562770674    1.449389847778   -0.221703430220
 H   -3.558445456855    0.651195576133   -0.380757448295
 C   -3.497646845712    2.725786571932   -0.184092675004
 N   -2.770092545039    3.818802465240   -0.019943065966
 N   -4.836683261435    2.825194659316   -0.368387834006
 H   -5.452959133029    2.028352355841   -0.282790206217
 H   -5.242467814811    3.748006113270   -0.262924073441
