34

 N    0.598832669186   -4.916281608960   -0.286055916036
 C    1.607442669186   -4.001231608960   -0.112665916036
 N    2.925602669186   -4.266951608960    0.004734083964
 C    3.653162669186   -3.173941608960    0.168884083964
 N    3.102072669186   -1.897541608960    0.206494083964
 H    3.713952669186   -1.099351608960    0.365544083964
 N    4.992192669186   -3.273351608960    0.353184083964
 H    5.608472669186   -2.476511608960    0.267584083964
 H    5.397972669186   -4.196161608960    0.247714083964
 C    1.751292669186   -1.587981608960    0.087064083964
 O    1.372522669186   -0.383671608960    0.148224083964
 C    0.955972669186   -2.754871608960   -0.093525916036
 N   -0.414667330814   -2.906901608960   -0.250095916036
 C   -0.584477330814   -4.224681608960   -0.362715916036
 H   -1.541937330814   -4.720091608960   -0.500185916036
 H    0.719422669186   -5.924841608960   -0.344315916036
 K    0.784422669186    2.021568391040    0.252734083964
 K   -1.310757330814   -0.504791608960   -0.201245916036
 C   -0.820198094376    2.363613304003    0.080239104363
 N    0.550436276412    2.515645551714    0.236808664850
 C    0.720247132583    3.833424963002    0.349431619486
 H    1.677713114653    4.328835624167    0.486895079657
 N   -0.463064485324    4.525026119422    0.272772875921
 H   -0.583652525521    5.533582874425    0.331038685798
 C   -1.471672991866    3.609966167980    0.099383627702
 C   -1.615518675902    1.196723502928   -0.100350727150
 O   -1.236752082761   -0.007577147193   -0.161507375505
 N   -2.966305546226    1.506283644744   -0.219771969650
 H   -3.578188232406    0.708089373099   -0.378825987724
 C   -3.517389621264    2.782680368898   -0.182161214433
 N   -2.789835320591    3.875696262207   -0.018011605395
 N   -4.856426036986    2.882088456282   -0.366456373436
 H   -5.472701908580    2.085246152807   -0.280858745646
 H   -5.262210590362    3.804899910237   -0.260992612871
