34

 N    0.663951368947   -5.103937598528   -0.292426560360
 C    1.672561368947   -4.188887598528   -0.119036560360
 N    2.990721368947   -4.454607598528   -0.001636560360
 C    3.718281368947   -3.361597598528    0.162513439640
 N    3.167191368947   -2.085197598528    0.200123439640
 H    3.779071368947   -1.287007598528    0.359173439640
 N    5.057311368947   -3.461007598528    0.346813439640
 H    5.673591368947   -2.664167598528    0.261213439640
 H    5.463091368947   -4.383817598528    0.241343439640
 C    1.816411368947   -1.775637598528    0.080693439640
 O    1.437641368947   -0.571327598528    0.141853439640
 C    1.021091368947   -2.942527598528   -0.099896560360
 N   -0.349548631053   -3.094557598528   -0.256466560360
 C   -0.519358631053   -4.412337598528   -0.369086560360
 H   -1.476818631053   -4.907747598528   -0.506556560360
 H    0.784541368947   -6.112497598528   -0.350686560360
 K    0.849541368947    1.833912401472    0.246363439640
 K   -1.245638631053   -0.692447598528   -0.207616560360
 C   -0.918911972133    2.648082288836    0.089896407216
 N    0.451722398655    2.800114536546    0.246465967703
 C    0.621533254826    4.117893947835    0.359088922339
 H    1.578999236896    4.613304609000    0.496552382510
 N   -0.561778363081    4.809495104255    0.282430178774
 H   -0.682366403278    5.818051859257    0.340695988651
 C   -1.570386869623    3.894435152813    0.109040930555
 C   -1.714232553659    1.481192487760   -0.090693424297
 O   -1.335465960518    0.276891837639   -0.151850072652
 N   -3.065019423983    1.790752629577   -0.210114666797
 H   -3.676902110163    0.992558357932   -0.369168684871
 C   -3.616103499021    3.067149353731   -0.172503911580
 N   -2.888549198348    4.160165247039   -0.008354302543
 N   -4.955139914743    3.166557441115   -0.356799070583
 H   -5.571415786338    2.369715137640   -0.271201442794
 H   -5.360924468119    4.089368895069   -0.251335310018
