34

 N    0.676975108899   -5.141468796442   -0.293700689224
 C    1.685585108899   -4.226418796442   -0.120310689224
 N    3.003745108899   -4.492138796442   -0.002910689224
 C    3.731305108899   -3.399128796442    0.161239310776
 N    3.180215108899   -2.122728796442    0.198849310776
 H    3.792095108899   -1.324538796442    0.357899310776
 N    5.070335108899   -3.498538796442    0.345539310776
 H    5.686615108899   -2.701698796442    0.259939310776
 H    5.476115108899   -4.421348796442    0.240069310776
 C    1.829435108899   -1.813168796442    0.079419310776
 O    1.450665108899   -0.608858796442    0.140579310776
 C    1.034115108899   -2.980058796442   -0.101170689224
 N   -0.336524891101   -3.132088796442   -0.257740689224
 C   -0.506334891101   -4.449868796442   -0.370360689224
 H   -1.463794891101   -4.945278796442   -0.507830689224
 H    0.797565108899   -6.150028796442   -0.351960689224
 K    0.862565108899    1.796381203558    0.245089310776
 K   -1.232614891101   -0.729978796442   -0.208890689224
 C   -0.938654747684    2.704976085802    0.091827867787
 N    0.431979623104    2.857008333513    0.248397428273
 C    0.601790479275    4.174787744801    0.361020382910
 H    1.559256461345    4.670198405966    0.498483843080
 N   -0.581521138632    4.866388901222    0.284361639344
 H   -0.702109178829    5.874945656224    0.342627449222
 C   -1.590129645174    3.951328949779    0.110972391126
 C   -1.733975329211    1.538086284727   -0.088761963727
 O   -1.355208736069    0.333785634606   -0.149918612081
 N   -3.084762199534    1.847646426543   -0.208183206226
 H   -3.696644885715    1.049452154898   -0.367237224300
 C   -3.635846274572    3.124043150698   -0.170572451010
 N   -2.908291973899    4.217059044006   -0.006422841972
 N   -4.974882690295    3.223451238082   -0.354867610012
 H   -5.591158561889    2.426608934606   -0.269269982223
 H   -5.380667243671    4.146262692036   -0.249403849447
