34

 N    0.716046328755   -5.254062390183   -0.297523075818
 C    1.724656328755   -4.339012390183   -0.124133075818
 N    3.042816328755   -4.604732390183   -0.006733075818
 C    3.770376328755   -3.511722390183    0.157416924182
 N    3.219286328755   -2.235322390183    0.195026924182
 H    3.831166328755   -1.437132390183    0.354076924182
 N    5.109406328755   -3.611132390183    0.341716924182
 H    5.725686328755   -2.814292390183    0.256116924182
 H    5.515186328755   -4.533942390183    0.236246924182
 C    1.868506328755   -1.925762390183    0.075596924182
 O    1.489736328755   -0.721452390183    0.136756924182
 C    1.073186328755   -3.092652390183   -0.104993075818
 N   -0.297453671245   -3.244682390183   -0.261563075818
 C   -0.467263671245   -4.562462390183   -0.374183075818
 H   -1.424723671245   -5.057872390183   -0.511653075818
 H    0.836636328755   -6.262622390183   -0.355783075818
 K    0.901636328755    1.683787609817    0.241266924182
 K   -1.193543671245   -0.842572390183   -0.212713075818
 C   -0.997883074339    2.875657476702    0.097622249499
 N    0.372751296449    3.027689724412    0.254191809985
 C    0.542562152620    4.345469135701    0.366814764622
 H    1.500028134691    4.840879796866    0.504278224792
 N   -0.640749465286    5.037070292121    0.290156021056
 H   -0.761337505483    6.045627047123    0.348421830934
 C   -1.649357971828    4.122010340679    0.116766772837
 C   -1.793203655865    1.708767675626   -0.082967582015
 O   -1.414437062723    0.504467025505   -0.144124230370
 N   -3.143990526189    2.018327817443   -0.202388824514
 H   -3.755873212369    1.220133545798   -0.361442842589
 C   -3.695074601226    3.294724541597   -0.164778069298
 N   -2.967520300553    4.387740434906   -0.000628460260
 N   -5.034111016949    3.394132628981   -0.349073228301
 H   -5.650386888543    2.597290325506   -0.263475600511
 H   -5.439895570325    4.316944082935   -0.243609467735
