34

 N    0.729070068708   -5.291593588097   -0.298797204683
 C    1.737680068708   -4.376543588097   -0.125407204683
 N    3.055840068708   -4.642263588097   -0.008007204683
 C    3.783400068708   -3.549253588097    0.156142795317
 N    3.232310068708   -2.272853588097    0.193752795317
 H    3.844190068708   -1.474663588097    0.352802795317
 N    5.122430068708   -3.648663588097    0.340442795317
 H    5.738710068708   -2.851823588097    0.254842795317
 H    5.528210068708   -4.571473588097    0.234972795317
 C    1.881530068708   -1.963293588097    0.074322795317
 O    1.502760068708   -0.758983588097    0.135482795317
 C    1.086210068708   -3.130183588097   -0.106267204683
 N   -0.284429931292   -3.282213588097   -0.262837204683
 C   -0.454239931292   -4.599993588097   -0.375457204683
 H   -1.411699931292   -5.095403588097   -0.512927204683
 H    0.849660068708   -6.300153588097   -0.357057204683
 K    0.914660068708    1.646256411903    0.239992795317
 K   -1.180519931292   -0.880103588097   -0.213987204683
 C   -1.017625849890    2.932551273668    0.099553710069
 N    0.353008520898    3.084583521379    0.256123270555
 C    0.522819377069    4.402362932667    0.368746225192
 H    1.480285359139    4.897773593832    0.506209685363
 N   -0.660492240838    5.093964089088    0.292087481627
 H   -0.781080281035    6.102520844090    0.350353291504
 C   -1.669100747380    4.178904137646    0.118698233408
 C   -1.812946431417    1.765661472593   -0.081036121444
 O   -1.434179838275    0.561360822472   -0.142192769799
 N   -3.163733301740    2.075221614409   -0.200457363944
 H   -3.775615987920    1.277027342764   -0.359511382018
 C   -3.714817376778    3.351618338564   -0.162846608727
 N   -2.987263076105    4.444634231872    0.001303000310
 N   -5.053853792500    3.451026425948   -0.347141767730
 H   -5.670129664095    2.654184122473   -0.261544139941
 H   -5.459638345876    4.373837879902   -0.241678007165
