34

 N    0.742093808660   -5.329124786010   -0.300071333548
 C    1.750703808660   -4.414074786010   -0.126681333548
 N    3.068863808660   -4.679794786010   -0.009281333548
 C    3.796423808660   -3.586784786010    0.154868666452
 N    3.245333808660   -2.310384786010    0.192478666452
 H    3.857213808660   -1.512194786010    0.351528666452
 N    5.135453808660   -3.686194786010    0.339168666452
 H    5.751733808660   -2.889354786010    0.253568666452
 H    5.541233808660   -4.609004786010    0.233698666452
 C    1.894553808660   -2.000824786010    0.073048666452
 O    1.515783808660   -0.796514786010    0.134208666452
 C    1.099233808660   -3.167714786010   -0.107541333548
 N   -0.271406191340   -3.319744786010   -0.264111333548
 C   -0.441216191340   -4.637524786010   -0.376731333548
 H   -1.398676191340   -5.132934786010   -0.514201333548
 H    0.862683808660   -6.337684786010   -0.358331333548
 K    0.927683808660    1.608725213990    0.238718666452
 K   -1.167496191340   -0.917634786010   -0.215261333548
 C   -1.037368625442    2.989445070635    0.101485170640
 N    0.333265745346    3.141477318345    0.258054731126
 C    0.503076601517    4.459256729634    0.370677685763
 H    1.460542583588    4.954667390799    0.508141145933
 N   -0.680235016389    5.150857886054    0.294018942197
 H   -0.800823056586    6.159414641056    0.352284752075
 C   -1.688843522931    4.235797934612    0.120629693979
 C   -1.832689206968    1.822555269559   -0.079104660874
 O   -1.453922613826    0.618254619438   -0.140261309229
 N   -3.183476077291    2.132115411376   -0.198525903373
 H   -3.795358763472    1.333921139731   -0.357579921448
 C   -3.734560152329    3.408512135530   -0.160915148157
 N   -3.007005851656    4.501528028839    0.003234460881
 N   -5.073596568052    3.507920222914   -0.345210307159
 H   -5.689872439646    2.711077919439   -0.259612679370
 H   -5.479381121428    4.430731676868   -0.239746546594
