34

 N    0.781165028516   -5.441718379751   -0.303893720142
 C    1.789775028516   -4.526668379751   -0.130503720142
 N    3.107935028516   -4.792388379751   -0.013103720142
 C    3.835495028516   -3.699378379751    0.151046279858
 N    3.284405028516   -2.422978379751    0.188656279858
 H    3.896285028516   -1.624788379751    0.347706279858
 N    5.174525028516   -3.798788379751    0.335346279858
 H    5.790805028516   -3.001948379751    0.249746279858
 H    5.580305028516   -4.721598379751    0.229876279858
 C    1.933625028516   -2.113418379751    0.069226279858
 O    1.554855028516   -0.909108379751    0.130386279858
 C    1.138305028516   -3.280308379751   -0.111363720142
 N   -0.232334971484   -3.432338379751   -0.267933720142
 C   -0.402144971484   -4.750118379751   -0.380553720142
 H   -1.359604971484   -5.245528379751   -0.518023720142
 H    0.901755028516   -6.450278379751   -0.362153720142
 K    0.966755028516    1.496131620249    0.234896279858
 K   -1.128424971484   -1.030228379751   -0.219083720142
 C   -1.096596952096    3.160126461535    0.107279552351
 N    0.274037418692    3.312158709245    0.263849112838
 C    0.443848274863    4.629938120533    0.376472067474
 H    1.401314256934    5.125348781698    0.513935527645
 N   -0.739463343043    5.321539276954    0.299813323909
 H   -0.860051383241    6.330096031956    0.358079133786
 C   -1.748071849585    4.406479325512    0.126424075690
 C   -1.891917533622    1.993236660459   -0.073310279162
 O   -1.513150940481    0.788936010338   -0.134466927517
 N   -3.242704403946    2.302796802275   -0.192731521661
 H   -3.854587090126    1.504602530630   -0.351785539736
 C   -3.793788478983    3.579193526430   -0.155120766445
 N   -3.066234178310    4.672209419738    0.009028842593
 N   -5.132824894706    3.678601613814   -0.339415925448
 H   -5.749100766300    2.881759310339   -0.253818297658
 H   -5.538609448082    4.601413067768   -0.233952164882
