34

 N    0.807212508421   -5.516780775579   -0.306441977871
 C    1.815822508421   -4.601730775579   -0.133051977871
 N    3.133982508421   -4.867450775579   -0.015651977871
 C    3.861542508421   -3.774440775579    0.148498022129
 N    3.310452508421   -2.498040775579    0.186108022129
 H    3.922332508421   -1.699850775579    0.345158022129
 N    5.200572508421   -3.873850775579    0.332798022129
 H    5.816852508421   -3.077010775579    0.247198022129
 H    5.606352508421   -4.796660775579    0.227328022129
 C    1.959672508421   -2.188480775579    0.066678022129
 O    1.580902508421   -0.984170775579    0.127838022129
 C    1.164352508421   -3.355370775579   -0.113911977871
 N   -0.206287491579   -3.507400775579   -0.270481977871
 C   -0.376097491579   -4.825180775579   -0.383101977871
 H   -1.333557491579   -5.320590775579   -0.520571977871
 H    0.927802508421   -6.525340775579   -0.364701977871
 K    0.992802508421    1.421069224421    0.232348022129
 K   -1.102377491579   -1.105290775579   -0.221631977871
 C   -1.136082503199    3.273914055468    0.111142473493
 N    0.234551867589    3.425946303178    0.267712033979
 C    0.404362723760    4.743725714466    0.380334988616
 H    1.361828705831    5.239136375631    0.517798448786
 N   -0.778948894146    5.435326870887    0.303676245050
 H   -0.899536934343    6.443883625889    0.361942054928
 C   -1.787557400688    4.520266919445    0.130286996831
 C   -1.931403084725    2.107024254392   -0.069447358021
 O   -1.552636491583    0.902723604271   -0.130604006376
 N   -3.282189955049    2.416584396208   -0.188868600520
 H   -3.894072641229    1.618390124563   -0.347922618595
 C   -3.833274030086    3.692981120363   -0.151257845304
 N   -3.105719729413    4.785997013671    0.012891763734
 N   -5.172310445809    3.792389207747   -0.335553004306
 H   -5.788586317403    2.995546904272   -0.249955376517
 H   -5.578094999185    4.715200661701   -0.230089243741
