34

 N    0.911402428038   -5.817030358888   -0.316635008789
 C    1.920012428038   -4.901980358888   -0.143245008789
 N    3.238172428038   -5.167700358888   -0.025845008789
 C    3.965732428038   -4.074690358888    0.138304991211
 N    3.414642428038   -2.798290358888    0.175914991211
 H    4.026522428038   -2.000100358888    0.334964991211
 N    5.304762428038   -4.174100358888    0.322604991211
 H    5.921042428038   -3.377260358888    0.237004991211
 H    5.710542428038   -5.096910358888    0.217134991211
 C    2.063862428038   -2.488730358888    0.056484991211
 O    1.685092428038   -1.284420358888    0.117644991211
 C    1.268542428038   -3.655620358888   -0.124105008789
 N   -0.102097571962   -3.807650358888   -0.280675008789
 C   -0.271907571962   -5.125430358888   -0.393295008789
 H   -1.229367571962   -5.620840358888   -0.530765008789
 H    1.031992428038   -6.825590358888   -0.374895008789
 K    1.096992428038    1.120819641112    0.222154991211
 K   -0.998187571962   -1.405540358888   -0.231825008789
 C   -1.294024707610    3.729064431200    0.126594158057
 N    0.076609663178    3.881096678910    0.283163718544
 C    0.246420519349    5.198876090198    0.395786673180
 H    1.203886501419    5.694286751363    0.533250133351
 N   -0.936891098558    5.890477246619    0.319127929615
 H   -1.057479138755    6.899034001621    0.377393739492
 C   -1.945499605100    4.975417295177    0.145738681396
 C   -2.089345289136    2.562174630124   -0.053995673456
 O   -1.710578695995    1.357873980003   -0.115152321811
 N   -3.440132159460    2.871734771941   -0.173416915956
 H   -4.052014845640    2.073540500295   -0.332470934030
 C   -3.991216234498    4.148131496095   -0.135806160739
 N   -3.263661933824    5.241147389403    0.028343448298
 N   -5.330252650220    4.247539583479   -0.320101319742
 H   -5.946528521814    3.450697280004   -0.234503691953
 H   -5.736037203596    5.170351037433   -0.214637559177
