34

 N    1.002568607704   -6.079748744284   -0.325553910842
 C    2.011178607704   -5.164698744284   -0.152163910842
 N    3.329338607704   -5.430418744284   -0.034763910842
 C    4.056898607704   -4.337408744284    0.129386089158
 N    3.505808607704   -3.061008744284    0.166996089158
 H    4.117688607704   -2.262818744284    0.326046089158
 N    5.395928607704   -4.436818744284    0.313686089158
 H    6.012208607704   -3.639978744284    0.228086089158
 H    5.801708607704   -5.359628744284    0.208216089158
 C    2.155028607704   -2.751448744284    0.047566089158
 O    1.776258607704   -1.547138744284    0.108726089158
 C    1.359708607704   -3.918338744284   -0.133023910842
 N   -0.010931392296   -4.070368744284   -0.289593910842
 C   -0.180741392296   -5.388148744284   -0.402213910842
 H   -1.138201392296   -5.883558744284   -0.539683910842
 H    1.123158607704   -7.088308744284   -0.383813910842
 K    1.188158607704    0.858101255716    0.213236089158
 K   -0.907021392296   -1.668258744284   -0.240743910842
 C   -1.432224136470    4.127321009965    0.140114382051
 N   -0.061589765682    4.279353257676    0.296683942538
 C    0.108221090489    5.597132668964    0.409306897174
 H    1.065687072560    6.092543330129    0.546770357345
 N   -1.075090527417    6.288733825385    0.332648153609
 H   -1.195678567615    7.297290580387    0.390913963486
 C   -2.083699033960    5.373673873942    0.159258905390
 C   -2.227544717996    2.960431208890   -0.040475449462
 O   -1.848778124855    1.756130558769   -0.101632097817
 N   -3.578331588320    3.269991350706   -0.159896691962
 H   -4.190214274500    2.471797079061   -0.318950710036
 C   -4.129415663358    4.546388074861   -0.122285936745
 N   -3.401861362684    5.639403968169    0.041863672293
 N   -5.468452079080    4.645796162245   -0.306581095748
 H   -6.084727950674    3.848953858769   -0.220983467958
 H   -5.874236632456    5.568607616199   -0.201117335183
