34

 N    1.015592347656   -6.117279942197   -0.326828039706
 C    2.024202347656   -5.202229942197   -0.153438039706
 N    3.342362347656   -5.467949942197   -0.036038039706
 C    4.069922347656   -4.374939942197    0.128111960294
 N    3.518832347656   -3.098539942197    0.165721960294
 H    4.130712347656   -2.300349942197    0.324771960294
 N    5.408952347656   -4.474349942197    0.312411960294
 H    6.025232347656   -3.677509942197    0.226811960294
 H    5.814732347656   -5.397159942197    0.206941960294
 C    2.168052347656   -2.788979942197    0.046291960294
 O    1.789282347656   -1.584669942197    0.107451960294
 C    1.372732347656   -3.955869942197   -0.134298039706
 N    0.002092347656   -4.107899942197   -0.290868039706
 C   -0.167717652344   -5.425679942197   -0.403488039706
 H   -1.125177652344   -5.921089942197   -0.540958039706
 H    1.136182347656   -7.125839942197   -0.385088039706
 K    1.201182347656    0.820570057803    0.211961960294
 K   -0.893997652344   -1.705789942197   -0.242018039706
 C   -1.451966912021    4.184214806932    0.142045842622
 N   -0.081332541233    4.336247054642    0.298615403108
 C    0.088478314938    5.654026465931    0.411238357745
 H    1.045944297008    6.149437127096    0.548701817915
 N   -1.094833302969    6.345627622351    0.334579614180
 H   -1.215421343166    7.354184377353    0.392845424057
 C   -2.103441809511    5.430567670909    0.161190365961
 C   -2.247287493548    3.017325005856   -0.038543988891
 O   -1.868520900406    1.813024355735   -0.099700637246
 N   -3.598074363871    3.326885147673   -0.157965231391
 H   -4.209957050051    2.528690876028   -0.317019249465
 C   -4.149158438909    4.603281871827   -0.120354476175
 N   -3.421604138236    5.696297765135    0.043795132863
 N   -5.488194854631    4.702689959211   -0.304649635177
 H   -6.104470726226    3.905847655736   -0.219052007388
 H   -5.893979408007    5.625501413165   -0.199185874612
