34

 N    1.054663567513   -6.229873535938   -0.330650426300
 C    2.063273567513   -5.314823535938   -0.157260426300
 N    3.381433567513   -5.580543535938   -0.039860426300
 C    4.108993567513   -4.487533535938    0.124289573700
 N    3.557903567513   -3.211133535938    0.161899573700
 H    4.169783567513   -2.412943535938    0.320949573700
 N    5.448023567513   -4.586943535938    0.308589573700
 H    6.064303567513   -3.790103535938    0.222989573700
 H    5.853803567513   -5.509753535938    0.203119573700
 C    2.207123567513   -2.901573535938    0.042469573700
 O    1.828353567513   -1.697263535938    0.103629573700
 C    1.411803567513   -4.068463535938   -0.138120426300
 N    0.041163567513   -4.220493535938   -0.294690426300
 C   -0.128646432487   -5.538273535938   -0.407310426300
 H   -1.086106432487   -6.033683535938   -0.544780426300
 H    1.175253567513   -7.238433535938   -0.388910426300
 K    1.240253567513    0.707976464062    0.208139573700
 K   -0.854926432487   -1.818383535938   -0.245840426300
 C   -1.511195238675    4.354896197831    0.147840224334
 N   -0.140560867888    4.506928445542    0.304409784820
 C    0.029249988283    5.824707856830    0.417032739457
 H    0.986715970354    6.320118517995    0.554496199627
 N   -1.154061629623    6.516309013251    0.340373995891
 H   -1.274649669820    7.524865768253    0.398639805769
 C   -2.162670136165    5.601249061809    0.166984747673
 C   -2.306515820202    3.188006396756   -0.032749607180
 O   -1.927749227060    1.983705746635   -0.093906255535
 N   -3.657302690525    3.497566538572   -0.152170849679
 H   -4.269185376706    2.699372266927   -0.311224867754
 C   -4.208386765563    4.773963262727   -0.114560094463
 N   -3.480832464890    5.866979156035    0.049589514575
 N   -5.547423181286    4.873371350111   -0.298855253465
 H   -6.163699052880    4.076529046636   -0.213257625676
 H   -5.953207734662    5.796182804065   -0.193391492900
