34

 N    1.067687307465   -6.267404733852   -0.331924555165
 C    2.076297307465   -5.352354733852   -0.158534555165
 N    3.394457307465   -5.618074733852   -0.041134555165
 C    4.122017307465   -4.525064733852    0.123015444835
 N    3.570927307465   -3.248664733852    0.160625444835
 H    4.182807307465   -2.450474733852    0.319675444835
 N    5.461047307465   -4.624474733852    0.307315444835
 H    6.077327307465   -3.827634733852    0.221715444835
 H    5.866827307465   -5.547284733852    0.201845444835
 C    2.220147307465   -2.939104733852    0.041195444835
 O    1.841377307465   -1.734794733852    0.102355444835
 C    1.424827307465   -4.105994733852   -0.139394555165
 N    0.054187307465   -4.258024733852   -0.295964555165
 C   -0.115622692535   -5.575804733852   -0.408584555165
 H   -1.073082692535   -6.071214733852   -0.546054555165
 H    1.188277307465   -7.275964733852   -0.390184555165
 K    1.253277307465    0.670445266148    0.206865444835
 K   -0.841902692535   -1.855914733852   -0.247114555165
 C   -1.530938014227    4.411789994798    0.149771684904
 N   -0.160303643439    4.563822242508    0.306341245391
 C    0.009507212732    5.881601653797    0.418964200027
 H    0.966973194802    6.377012314962    0.556427660198
 N   -1.173804405175    6.573202810217    0.342305456462
 H   -1.294392445372    7.581759565219    0.400571266339
 C   -2.182412911717    5.658142858775    0.168916208243
 C   -2.326258595753    3.244900193722   -0.030818146609
 O   -1.947492002612    2.040599543601   -0.091974794964
 N   -3.677045466077    3.554460335539   -0.150239389109
 H   -4.288928152257    2.756266063894   -0.309293407183
 C   -4.228129541115    4.830857059693   -0.112628633892
 N   -3.500575240441    5.923872953002    0.051520975145
 N   -5.567165956837    4.930265147077   -0.296923792895
 H   -6.183441828431    4.133422843602   -0.211326165106
 H   -5.972950510213    5.853076601031   -0.191460032330
