34

 N    1.106758527321   -6.379998327593   -0.335746941759
 C    2.115368527321   -5.464948327593   -0.162356941759
 N    3.433528527321   -5.730668327593   -0.044956941759
 C    4.161088527321   -4.637658327593    0.119193058241
 N    3.609998527321   -3.361258327593    0.156803058241
 H    4.221878527321   -2.563068327593    0.315853058241
 N    5.500118527321   -4.737068327593    0.303493058241
 H    6.116398527321   -3.940228327593    0.217893058241
 H    5.905898527321   -5.659878327593    0.198023058241
 C    2.259218527321   -3.051698327593    0.037373058241
 O    1.880448527321   -1.847388327593    0.098533058241
 C    1.463898527321   -4.218588327593   -0.143216941759
 N    0.093258527321   -4.370618327593   -0.299786941759
 C   -0.076551472679   -5.688398327593   -0.412406941759
 H   -1.034011472679   -6.183808327593   -0.549876941759
 H    1.227348527321   -7.388558327593   -0.394006941759
 K    1.292348527321    0.557851672407    0.203043058241
 K   -0.802831472679   -1.968508327593   -0.250936941759
 C   -1.590166340881    4.582471385698    0.155566066616
 N   -0.219531970093    4.734503633408    0.312135627102
 C   -0.049721113922    6.052283044696    0.424758581739
 H    0.907744868148    6.547693705861    0.562222041910
 N   -1.233032731829    6.743884201117    0.348099838174
 H   -1.353620772026    7.752440956119    0.406365648051
 C   -2.241641238371    5.828824249675    0.174710589955
 C   -2.385486922408    3.415581584622   -0.025023764897
 O   -2.006720329266    2.211280934501   -0.086180413252
 N   -3.736273792731    3.725141726438   -0.144445007397
 H   -4.348156478911    2.926947454793   -0.303499025471
 C   -4.287357867769    5.001538450593   -0.106834252181
 N   -3.559803567096    6.094554343901    0.057315356857
 N   -5.626394283491    5.100946537977   -0.291129411183
 H   -6.242670155086    4.304104234502   -0.205531783394
 H   -6.032178836867    6.023757991931   -0.185665650618
