34

 N    1.145829747178   -6.492591921334   -0.339569328353
 C    2.154439747178   -5.577541921334   -0.166179328353
 N    3.472599747178   -5.843261921334   -0.048779328353
 C    4.200159747178   -4.750251921334    0.115370671647
 N    3.649069747178   -3.473851921334    0.152980671647
 H    4.260949747178   -2.675661921334    0.312030671647
 N    5.539189747178   -4.849661921334    0.299670671647
 H    6.155469747178   -4.052821921334    0.214070671647
 H    5.944969747178   -5.772471921334    0.194200671647
 C    2.298289747178   -3.164291921334    0.033550671647
 O    1.919519747178   -1.959981921334    0.094710671647
 C    1.502969747178   -4.331181921334   -0.147039328353
 N    0.132329747178   -4.483211921334   -0.303609328353
 C   -0.037480252822   -5.800991921334   -0.416229328353
 H   -0.994940252822   -6.296401921334   -0.553699328353
 H    1.266419747178   -7.501151921334   -0.397829328353
 K    1.331419747178    0.445258078666    0.199220671647
 K   -0.763760252822   -2.081101921334   -0.254759328353
 C   -1.649394667535    4.753152776597    0.161360448328
 N   -0.278760296747    4.905185024307    0.317930008814
 C   -0.108949440576    6.222964435596    0.430552963451
 H    0.848516541494    6.718375096761    0.568016423621
 N   -1.292261058483    6.914565592016    0.353894219885
 H   -1.412849098680    7.923122347019    0.412160029763
 C   -2.300869565025    5.999505640574    0.180504971667
 C   -2.444715249062    3.586262975521   -0.019229383186
 O   -2.065948655920    2.381962325400   -0.080386031541
 N   -3.795502119385    3.895823117338   -0.138650625685
 H   -4.407384805566    3.097628845693   -0.297704643760
 C   -4.346586194423    5.172219841492   -0.101039870469
 N   -3.619031893750    6.265235734801    0.063109738569
 N   -5.685622610146    5.271627928876   -0.285335029471
 H   -6.301898481740    4.474785625401   -0.199737401682
 H   -6.091407163521    6.194439382830   -0.179871268906
