34

 N    1.158853487130   -6.530123119248   -0.340843457218
 C    2.167463487130   -5.615073119248   -0.167453457218
 N    3.485623487130   -5.880793119248   -0.050053457218
 C    4.213183487130   -4.787783119248    0.114096542782
 N    3.662093487130   -3.511383119248    0.151706542782
 H    4.273973487130   -2.713193119248    0.310756542782
 N    5.552213487130   -4.887193119248    0.298396542782
 H    6.168493487130   -4.090353119248    0.212796542782
 H    5.957993487130   -5.810003119248    0.192926542782
 C    2.311313487130   -3.201823119248    0.032276542782
 O    1.932543487130   -1.997513119248    0.093436542782
 C    1.515993487130   -4.368713119248   -0.148313457218
 N    0.145353487130   -4.520743119248   -0.304883457218
 C   -0.024456512870   -5.838523119248   -0.417503457218
 H   -0.981916512870   -6.333933119248   -0.554973457218
 H    1.279443487130   -7.538683119248   -0.399103457218
 K    1.344443487130    0.407726880752    0.197946542782
 K   -0.750736512870   -2.118633119248   -0.256033457218
 C   -1.669137443087    4.810046573564    0.163291908898
 N   -0.298503072299    4.962078821274    0.319861469385
 C   -0.128692216128    6.279858232562    0.432484424021
 H    0.828773765943    6.775268893727    0.569947884192
 N   -1.312003834034    6.971459388983    0.355825680456
 H   -1.432591874232    7.980016143985    0.414091490333
 C   -2.320612340576    6.056399437541    0.182436432237
 C   -2.464458024613    3.643156772488   -0.017297922615
 O   -2.085691431472    2.438856122367   -0.078454570970
 N   -3.815244894937    3.952716914304   -0.136719165115
 H   -4.427127581117    3.154522642659   -0.295773183189
 C   -4.366328969974    5.229113638459   -0.099108409898
 N   -3.638774669301    6.322129531767    0.065041199140
 N   -5.705365385697    5.328521725843   -0.283403568901
 H   -6.321641257291    4.531679422368   -0.197805941112
 H   -6.111149939073    6.251333179797   -0.177939808336
