34

 N    1.223972186891   -6.717779108816   -0.347214101541
 C    2.232582186891   -5.802729108816   -0.173824101541
 N    3.550742186891   -6.068449108816   -0.056424101541
 C    4.278302186891   -4.975439108816    0.107725898459
 N    3.727212186891   -3.699039108816    0.145335898459
 H    4.339092186891   -2.900849108816    0.304385898459
 N    5.617332186891   -5.074849108816    0.292025898459
 H    6.233612186891   -4.278009108816    0.206425898459
 H    6.023112186891   -5.997659108816    0.186555898459
 C    2.376432186891   -3.389479108816    0.025905898459
 O    1.997662186891   -2.185169108816    0.087065898459
 C    1.581112186891   -4.556369108816   -0.154684101541
 N    0.210472186891   -4.708399108816   -0.311254101541
 C    0.040662186891   -6.026179108816   -0.423874101541
 H   -0.916797813109   -6.521589108816   -0.561344101541
 H    1.344562186891   -7.726339108816   -0.405474101541
 K    1.409562186891    0.220070891184    0.191575898459
 K   -0.685617813109   -2.306289108816   -0.262404101541
 C   -1.767851320844    5.094515558396    0.172949211751
 N   -0.397216950056    5.246547806107    0.329518772238
 C   -0.227406093885    6.564327217395    0.442141726874
 H    0.730059888185    7.059737878560    0.579605187045
 N   -1.410717711792    7.255928373815    0.365482983309
 H   -1.531305751989    8.264485128818    0.423748793186
 C   -2.419326218334    6.340868422373    0.192093735090
 C   -2.563171902370    3.927625757321   -0.007640619762
 O   -2.184405309229    2.723325107200   -0.068797268117
 N   -3.913958772694    4.237185899137   -0.127061862262
 H   -4.525841458874    3.438991627492   -0.286115880336
 C   -4.465042847732    5.513582623291   -0.089451107045
 N   -3.737488547058    6.606598516600    0.074698501992
 N   -5.804079263454    5.612990710675   -0.273746266048
 H   -6.420355135048    4.816148407200   -0.188148638259
 H   -6.209863816830    6.535802164630   -0.168282505483
