34

 N    1.289090886652   -6.905435098384   -0.353584745865
 C    2.297700886652   -5.990385098384   -0.180194745865
 N    3.615860886652   -6.256105098384   -0.062794745865
 C    4.343420886652   -5.163095098384    0.101355254135
 N    3.792330886652   -3.886695098384    0.138965254135
 H    4.404210886652   -3.088505098384    0.298015254135
 N    5.682450886652   -5.262505098384    0.285655254135
 H    6.298730886652   -4.465665098384    0.200055254135
 H    6.088230886652   -6.185315098384    0.180185254135
 C    2.441550886652   -3.577135098384    0.019535254135
 O    2.062780886652   -2.372825098384    0.080695254135
 C    1.646230886652   -4.744025098384   -0.161054745865
 N    0.275590886652   -4.896055098384   -0.317624745865
 C    0.105780886652   -6.213835098384   -0.430244745865
 H   -0.851679113348   -6.709245098384   -0.567714745865
 H    1.409680886652   -7.913995098384   -0.411844745865
 K    1.474680886652    0.032414901616    0.185205254135
 K   -0.620499113348   -2.493945098384   -0.268774745865
 C   -1.866565198601    5.378984543229    0.182606514604
 N   -0.495930827813    5.531016790939    0.339176075090
 C   -0.326119971642    6.848796202227    0.451799029727
 H    0.631346010428    7.344206863392    0.589262489898
 N   -1.509431589549    7.540397358648    0.375140286162
 H   -1.630019629746    8.548954113650    0.433406096039
 C   -2.518040096091    6.625337407206    0.201751037943
 C   -2.661885780127    4.212094742153    0.002016683091
 O   -2.283119186986    3.007794092032   -0.059139965264
 N   -4.012672650451    4.521654883970   -0.117404559409
 H   -4.624555336631    3.723460612325   -0.276458577483
 C   -4.563756725489    5.798051608124   -0.079793804192
 N   -3.836202424816    6.891067501432    0.084355804845
 N   -5.902793141211    5.897459695508   -0.264088963195
 H   -6.519069012805    5.100617392033   -0.178491335406
 H   -6.308577694587    6.820271149462   -0.158625202630
