34

 N    1.315138366557   -6.980497494212   -0.356133003594
 C    2.323748366557   -6.065447494212   -0.182743003594
 N    3.641908366557   -6.331167494212   -0.065343003594
 C    4.369468366557   -5.238157494212    0.098806996406
 N    3.818378366557   -3.961757494212    0.136416996406
 H    4.430258366557   -3.163567494212    0.295466996406
 N    5.708498366557   -5.337567494212    0.283106996406
 H    6.324778366557   -4.540727494212    0.197506996406
 H    6.114278366557   -6.260377494212    0.177636996406
 C    2.467598366557   -3.652197494212    0.016986996406
 O    2.088828366557   -2.447887494212    0.078146996406
 C    1.672278366557   -4.819087494212   -0.163603003594
 N    0.301638366557   -4.971117494212   -0.320173003594
 C    0.131828366557   -6.288897494212   -0.432793003594
 H   -0.825631633443   -6.784307494212   -0.570263003594
 H    1.435728366557   -7.989057494212   -0.414393003594
 K    1.500728366557   -0.042647494212    0.182656996406
 K   -0.594451633443   -2.569007494212   -0.271323003594
 C   -1.906050749704    5.492772137162    0.186469435745
 N   -0.535416378916    5.644804384872    0.343038996232
 C   -0.365605522745    6.962583796160    0.455661950868
 H    0.591860459326    7.457994457326    0.593125411039
 N   -1.548917140651    7.654184952581    0.379003207303
 H   -1.669505180849    8.662741707583    0.437269017180
 C   -2.557525647193    6.739125001139    0.205613959084
 C   -2.701371331230    4.325882336086    0.005879604232
 O   -2.322604738089    3.121581685965   -0.055277044123
 N   -4.052158201554    4.635442477903   -0.113541638268
 H   -4.664040887734    3.837248206258   -0.272595656342
 C   -4.603242276591    5.911839202057   -0.075930883051
 N   -3.875687975918    7.004855095365    0.088218725986
 N   -5.942278692314    6.011247289441   -0.260226042054
 H   -6.558554563908    5.214404985966   -0.174628414265
 H   -6.348063245690    6.934058743395   -0.154762281489
