34

 N    1.328162106509   -7.018028692125   -0.357407132459
 C    2.336772106509   -6.102978692125   -0.184017132459
 N    3.654932106509   -6.368698692125   -0.066617132459
 C    4.382492106509   -5.275688692125    0.097532867541
 N    3.831402106509   -3.999288692125    0.135142867541
 H    4.443282106509   -3.201098692125    0.294192867541
 N    5.721522106509   -5.375098692125    0.281832867541
 H    6.337802106509   -4.578258692125    0.196232867541
 H    6.127302106509   -6.297908692125    0.176362867541
 C    2.480622106509   -3.689728692125    0.015712867541
 O    2.101852106509   -2.485418692125    0.076872867541
 C    1.685302106509   -4.856618692125   -0.164877132459
 N    0.314662106509   -5.008648692125   -0.321447132459
 C    0.144852106509   -6.326428692125   -0.434067132459
 H   -0.812607893491   -6.821838692125   -0.571537132459
 H    1.448752106509   -8.026588692125   -0.415667132459
 K    1.513752106509   -0.080178692125    0.181382867541
 K   -0.581427893491   -2.606538692125   -0.272597132459
 C   -1.925793525255    5.549665934128    0.188400896316
 N   -0.555159154467    5.701698181839    0.344970456802
 C   -0.385348298296    7.019477593127    0.457593411439
 H    0.572117683774    7.514888254292    0.595056871609
 N   -1.568659916203    7.711078749547    0.380934667873
 H   -1.689247956400    8.719635504550    0.439200477751
 C   -2.577268422745    6.796018798105    0.207545419655
 C   -2.721114106782    4.382776133053    0.007811064802
 O   -2.342347513640    3.178475482932   -0.053345583552
 N   -4.071900977105    4.692336274869   -0.111610177697
 H   -4.683783663285    3.894142003224   -0.270664195771
 C   -4.622985052143    5.968732999024   -0.073999422481
 N   -3.895430751470    7.061748892332    0.090150186557
 N   -5.962021467865    6.068141086408   -0.258294581483
 H   -6.578297339460    5.271298782932   -0.172696953694
 H   -6.367806021241    6.990952540362   -0.152830820918
