34

 N    1.354209586413   -7.093091087953   -0.359955390188
 C    2.362819586413   -6.178041087953   -0.186565390188
 N    3.680979586413   -6.443761087953   -0.069165390188
 C    4.408539586413   -5.350751087953    0.094984609812
 N    3.857449586413   -4.074351087953    0.132594609812
 H    4.469329586413   -3.276161087953    0.291644609812
 N    5.747569586413   -5.450161087953    0.279284609812
 H    6.363849586413   -4.653321087953    0.193684609812
 H    6.153349586413   -6.372971087953    0.173814609812
 C    2.506669586413   -3.764791087953    0.013164609812
 O    2.127899586413   -2.560481087953    0.074324609812
 C    1.711349586413   -4.931681087953   -0.167425390188
 N    0.340709586413   -5.083711087953   -0.323995390188
 C    0.170899586413   -6.401491087953   -0.436615390188
 H   -0.786560413587   -6.896901087953   -0.574085390188
 H    1.474799586413   -8.101651087953   -0.418215390188
 K    1.539799586413   -0.155241087953    0.178834609812
 K   -0.555380413587   -2.681601087953   -0.275145390188
 C   -1.965279076358    5.663453528061    0.192263817457
 N   -0.594644705570    5.815485775772    0.348833377943
 C   -0.424833849399    7.133265187060    0.461456332580
 H    0.532632132671    7.628675848225    0.598919792751
 N   -1.608145467306    7.824866343481    0.384797589015
 H   -1.728733507503    8.833423098483    0.443063398892
 C   -2.616753973848    6.909806392038    0.211408340796
 C   -2.760599657884    4.496563726986    0.011673985944
 O   -2.381833064743    3.292263076865   -0.049482662411
 N   -4.111386528208    4.806123868802   -0.107747256556
 H   -4.723269214388    4.007929597157   -0.266801274630
 C   -4.662470603246    6.082520592957   -0.070136501340
 N   -3.934916302573    7.175536486265    0.094013107698
 N   -6.001507018968    6.181928680341   -0.254431660342
 H   -6.617782890563    5.385086376865   -0.168834032553
 H   -6.407291572344    7.104740134295   -0.148967899777
