34

 N    1.380257066318   -7.168153483780   -0.362503647918
 C    2.388867066318   -6.253103483780   -0.189113647918
 N    3.707027066318   -6.518823483780   -0.071713647918
 C    4.434587066318   -5.425813483780    0.092436352082
 N    3.883497066318   -4.149413483780    0.130046352082
 H    4.495377066318   -3.351223483780    0.289096352082
 N    5.773617066318   -5.525223483780    0.276736352082
 H    6.389897066318   -4.728383483780    0.191136352082
 H    6.179397066318   -6.448033483780    0.171266352082
 C    2.532717066318   -3.839853483780    0.010616352082
 O    2.153947066318   -2.635543483780    0.071776352082
 C    1.737397066318   -5.006743483780   -0.169973647918
 N    0.366757066318   -5.158773483780   -0.326543647918
 C    0.196947066318   -6.476553483780   -0.439163647918
 H   -0.760512933682   -6.971963483780   -0.576633647918
 H    1.500847066318   -8.176713483780   -0.420763647918
 K    1.565847066318   -0.230303483780    0.176286352082
 K   -0.529332933682   -2.756663483780   -0.277693647918
 C   -2.004764627461    5.777241121994    0.196126738598
 N   -0.634130256673    5.929273369705    0.352696299084
 C   -0.464319400502    7.247052780993    0.465319253721
 H    0.493146581568    7.742463442158    0.602782713892
 N   -1.647631018409    7.938653937414    0.388660510156
 H   -1.768219058606    8.947210692416    0.446926320033
 C   -2.656239524951    7.023593985971    0.215271261937
 C   -2.800085208987    4.610351320919    0.015536907085
 O   -2.421318615846    3.406050670798   -0.045619741270
 N   -4.150872079311    4.919911462735   -0.103884335415
 H   -4.762754765491    4.121717191090   -0.262938353489
 C   -4.701956154349    6.196308186890   -0.066273580198
 N   -3.974401853675    7.289324080198    0.097876028839
 N   -6.040992570071    6.295716274274   -0.250568739201
 H   -6.657268441665    5.498873970799   -0.164971111412
 H   -6.446777123447    7.218527728228   -0.145104978636
