34

 N    1.393280806270   -7.205684681694   -0.363777776782
 C    2.401890806270   -6.290634681694   -0.190387776782
 N    3.720050806270   -6.556354681694   -0.072987776782
 C    4.447610806270   -5.463344681694    0.091162223218
 N    3.896520806270   -4.186944681694    0.128772223218
 H    4.508400806270   -3.388754681694    0.287822223218
 N    5.786640806270   -5.562754681694    0.275462223218
 H    6.402920806270   -4.765914681694    0.189862223218
 H    6.192420806270   -6.485564681694    0.169992223218
 C    2.545740806270   -3.877384681694    0.009342223218
 O    2.166970806270   -2.673074681694    0.070502223218
 C    1.750420806270   -5.044274681694   -0.171247776782
 N    0.379780806270   -5.196304681694   -0.327817776782
 C    0.209970806270   -6.514084681694   -0.440437776782
 H   -0.747489193730   -7.009494681694   -0.577907776782
 H    1.513870806270   -8.214244681694   -0.422037776782
 K    1.578870806270   -0.267834681694    0.175012223218
 K   -0.516309193730   -2.794194681694   -0.278967776782
 C   -2.024507403012    5.834134918961    0.198058199169
 N   -0.653873032224    5.986167166671    0.354627759655
 C   -0.484062176053    7.303946577960    0.467250714292
 H    0.473403806017    7.799357239125    0.604714174462
 N   -1.667373793960    7.995547734380    0.390591970726
 H   -1.787961834157    9.004104489382    0.448857780604
 C   -2.675982300502    7.080487782938    0.217202722508
 C   -2.819827984539    4.667245117885    0.017468367655
 O   -2.441061391397    3.462944467764   -0.043688280700
 N   -4.170614854862    4.976805259702   -0.101952874844
 H   -4.782497541043    4.178610988057   -0.261006892919
 C   -4.721698929900    6.253201983856   -0.064342119628
 N   -3.994144629227    7.346217877165    0.099807489410
 N   -6.060735345622    6.352610071240   -0.248637278630
 H   -6.677011217217    5.555767767765   -0.163039650841
 H   -6.466519898998    7.275421525194   -0.143173518065
