34

 N    1.406304546222   -7.243215879607   -0.365051905647
 C    2.414914546222   -6.328165879607   -0.191661905647
 N    3.733074546222   -6.593885879607   -0.074261905647
 C    4.460634546222   -5.500875879607    0.089888094353
 N    3.909544546222   -4.224475879607    0.127498094353
 H    4.521424546222   -3.426285879607    0.286548094353
 N    5.799664546222   -5.600285879607    0.274188094353
 H    6.415944546222   -4.803445879607    0.188588094353
 H    6.205444546222   -6.523095879607    0.168718094353
 C    2.558764546222   -3.914915879607    0.008068094353
 O    2.179994546222   -2.710605879607    0.069228094353
 C    1.763444546222   -5.081805879607   -0.172521905647
 N    0.392804546222   -5.233835879607   -0.329091905647
 C    0.222994546222   -6.551615879607   -0.441711905647
 H   -0.734465453778   -7.047025879607   -0.579181905647
 H    1.526894546222   -8.251775879607   -0.423311905647
 K    1.591894546222   -0.305365879607    0.173738094353
 K   -0.503285453778   -2.831725879607   -0.280241905647
 C   -2.044250178564    5.891028715927    0.199989659739
 N   -0.673615807776    6.043060963638    0.356559220226
 C   -0.503804951605    7.360840374926    0.469182174862
 H    0.453661030466    7.856251036091    0.606645635033
 N   -1.687116569511    8.052441531347    0.392523431297
 H   -1.807704609708    9.060998286349    0.450789241174
 C   -2.695725076053    7.137381579905    0.219134183078
 C   -2.839570760090    4.724138914852    0.019399828226
 O   -2.460804166948    3.519838264731   -0.041756820129
 N   -4.190357630414    5.033699056668   -0.100021414274
 H   -4.802240316594    4.235504785023   -0.259075432348
 C   -4.741441705451    6.310095780823   -0.062410659057
 N   -4.013887404778    7.403111674131    0.101738949981
 N   -6.080478121174    6.409503868207   -0.246705818060
 H   -6.696753992768    5.612661564732   -0.161108190270
 H   -6.486262674550    7.332315322161   -0.141242057495
