34

 N    1.445375766079   -7.355809473349   -0.368874292241
 C    2.453985766079   -6.440759473349   -0.195484292241
 N    3.772145766079   -6.706479473349   -0.078084292241
 C    4.499705766079   -5.613469473349    0.086065707759
 N    3.948615766079   -4.337069473349    0.123675707759
 H    4.560495766079   -3.538879473349    0.282725707759
 N    5.838735766079   -5.712879473349    0.270365707759
 H    6.455015766079   -4.916039473349    0.184765707759
 H    6.244515766079   -6.635689473349    0.164895707759
 C    2.597835766079   -4.027509473349    0.004245707759
 O    2.219065766079   -2.823199473349    0.065405707759
 C    1.802515766079   -5.194399473349   -0.176344292241
 N    0.431875766079   -5.346429473349   -0.332914292241
 C    0.262065766079   -6.664209473349   -0.445534292241
 H   -0.695394233921   -7.159619473349   -0.583004292241
 H    1.565965766079   -8.364369473349   -0.427134292241
 K    1.630965766079   -0.417959473349    0.169915707759
 K   -0.464214233921   -2.944319473349   -0.284064292241
 C   -2.103478505218    6.061710106827    0.205784041451
 N   -0.732844134430    6.213742354537    0.362353601937
 C   -0.563033278259    7.531521765826    0.474976556574
 H    0.394432703811    8.026932426991    0.612440016745
 N   -1.746344896166    8.223122922246    0.398317813009
 H   -1.866932936363    9.231679677248    0.456583622886
 C   -2.754953402708    7.308062970804    0.224928564790
 C   -2.898799086744    4.894820305751    0.025194209938
 O   -2.520032493603    3.690519655630   -0.035962438417
 N   -4.249585957068    5.204380447568   -0.094227032562
 H   -4.861468643248    4.406186175923   -0.253281050636
 C   -4.800670032106    6.480777171722   -0.056616277346
 N   -4.073115731432    7.573793065031    0.107533331692
 N   -6.139706447828    6.580185259106   -0.240911436348
 H   -6.755982319422    5.783342955631   -0.155313808559
 H   -6.545491001204    7.502996713060   -0.135447675783
