34

 N    1.471423245983   -7.430871869176   -0.371422549971
 C    2.480033245983   -6.515821869176   -0.198032549971
 N    3.798193245983   -6.781541869176   -0.080632549971
 C    4.525753245983   -5.688531869176    0.083517450029
 N    3.974663245983   -4.412131869176    0.121127450029
 H    4.586543245983   -3.613941869176    0.280177450029
 N    5.864783245983   -5.787941869176    0.267817450029
 H    6.481063245983   -4.991101869176    0.182217450029
 H    6.270563245983   -6.710751869176    0.162347450029
 C    2.623883245983   -4.102571869176    0.001697450029
 O    2.245113245983   -2.898261869176    0.062857450029
 C    1.828563245983   -5.269461869176   -0.178892549971
 N    0.457923245983   -5.421491869176   -0.335462549971
 C    0.288113245983   -6.739271869176   -0.448082549971
 H   -0.669346754017   -7.234681869176   -0.585552549971
 H    1.592013245983   -8.439431869176   -0.429682549971
 K    1.657013245983   -0.493021869176    0.167367450029
 K   -0.438166754017   -3.019381869176   -0.286612549971
 C   -2.142964056321    6.175497700760    0.209646962592
 N   -0.772329685533    6.327529948470    0.366216523079
 C   -0.602518829362    7.645309359759    0.478839477715
 H    0.354947152709    8.140720020924    0.616302937886
 N   -1.785830447268    8.336910516179    0.402180734150
 H   -1.906418487466    9.345467271181    0.460446544027
 C   -2.794438953810    7.421850564737    0.228791485931
 C   -2.938284637847    5.008607899684    0.029057131079
 O   -2.559518044706    3.804307249563   -0.032099517276
 N   -4.289071508171    5.318168041501   -0.090364111421
 H   -4.900954194351    4.519973769856   -0.249418129495
 C   -4.840155583208    6.594564765655   -0.052753356204
 N   -4.112601282535    7.687580658964    0.111396252833
 N   -6.179191998931    6.693972853039   -0.237048515207
 H   -6.795467870525    5.897130549564   -0.151450887418
 H   -6.584976552307    7.616784306993   -0.131584754642
