34

 N    1.484446985935   -7.468403067090   -0.372696678835
 C    2.493056985935   -6.553353067090   -0.199306678835
 N    3.811216985935   -6.819073067090   -0.081906678835
 C    4.538776985935   -5.726063067090    0.082243321165
 N    3.987686985935   -4.449663067090    0.119853321165
 H    4.599566985935   -3.651473067090    0.278903321165
 N    5.877806985935   -5.825473067090    0.266543321165
 H    6.494086985935   -5.028633067090    0.180943321165
 H    6.283586985935   -6.748283067090    0.161073321165
 C    2.636906985935   -4.140103067090    0.000423321165
 O    2.258136985935   -2.935793067090    0.061583321165
 C    1.841586985935   -5.306993067090   -0.180166678835
 N    0.470946985935   -5.459023067090   -0.336736678835
 C    0.301136985935   -6.776803067090   -0.449356678835
 H   -0.656323014065   -7.272213067090   -0.586826678835
 H    1.605036985935   -8.476963067090   -0.430956678835
 K    1.670036985935   -0.530553067090    0.166093321165
 K   -0.425143014065   -3.056913067090   -0.287886678835
 C   -2.162706831872    6.232391497727    0.211578423163
 N   -0.792072461084    6.384423745437    0.368147983649
 C   -0.622261604913    7.702203156725    0.480770938286
 H    0.335204377157    8.197613817890    0.618234398456
 N   -1.805573222820    8.393804313146    0.404112194720
 H   -1.926161263017    9.402361068148    0.462378004598
 C   -2.814181729362    7.478744361704    0.230722946502
 C   -2.958027413399    5.065501696651    0.030988591649
 O   -2.579260820257    3.861201046530   -0.030168056705
 N   -4.308814283722    5.375061838467   -0.088432650850
 H   -4.920696969902    4.576867566822   -0.247486668925
 C   -4.859898358760    6.651458562622   -0.050821895634
 N   -4.132344058087    7.744474455930    0.113327713404
 N   -6.198934774482    6.750866650006   -0.235117054636
 H   -6.815210646077    5.954024346531   -0.149519426847
 H   -6.604719327858    7.673678103960   -0.129653294071
