34

 N    1.510494465840   -7.543465462917   -0.375244936565
 C    2.519104465840   -6.628415462917   -0.201854936565
 N    3.837264465840   -6.894135462917   -0.084454936565
 C    4.564824465840   -5.801125462917    0.079695063435
 N    4.013734465840   -4.524725462917    0.117305063435
 H    4.625614465840   -3.726535462917    0.276355063435
 N    5.903854465840   -5.900535462917    0.263995063435
 H    6.520134465840   -5.103695462917    0.178395063435
 H    6.309634465840   -6.823345462917    0.158525063435
 C    2.662954465840   -4.215165462917   -0.002124936565
 O    2.284184465840   -3.010855462917    0.059035063435
 C    1.867634465840   -5.382055462917   -0.182714936565
 N    0.496994465840   -5.534085462917   -0.339284936565
 C    0.327184465840   -6.851865462917   -0.451904936565
 H   -0.630275534160   -7.347275462917   -0.589374936565
 H    1.631084465840   -8.552025462917   -0.433504936565
 K    1.696084465840   -0.605615462917    0.163545063435
 K   -0.399095534160   -3.131975462917   -0.290434936565
 C   -2.202192382975    6.346179091660    0.215441344304
 N   -0.831558012187    6.498211339370    0.372010904790
 C   -0.661747156016    7.815990750658    0.484633859427
 H    0.295718826054    8.311401411823    0.622097319597
 N   -1.845058773923    8.507591907079    0.407975115862
 H   -1.965646814120    9.516148662081    0.466240925739
 C   -2.853667280465    7.592531955637    0.234585867643
 C   -2.997512964501    5.179289290584    0.034851512791
 O   -2.618746371360    3.974988640463   -0.026305135564
 N   -4.348299834825    5.488849432400   -0.084569729709
 H   -4.960182521005    4.690655160755   -0.243623747783
 C   -4.899383909863    6.765246156555   -0.046958974493
 N   -4.171829609190    7.858262049863    0.117190634545
 N   -6.238420325585    6.864654243939   -0.231254133495
 H   -6.854696197179    6.067811940464   -0.145656505706
 H   -6.644204878961    7.787465697893   -0.125790372930
