34

 N    1.588636905553   -7.768652650399   -0.382889709753
 C    2.597246905553   -6.853602650399   -0.209499709753
 N    3.915406905553   -7.119322650399   -0.092099709753
 C    4.642966905553   -6.026312650399    0.072050290247
 N    4.091876905553   -4.749912650399    0.109660290247
 H    4.703756905553   -3.951722650399    0.268710290247
 N    5.981996905553   -6.125722650399    0.256350290247
 H    6.598276905553   -5.328882650399    0.170750290247
 H    6.387776905553   -7.048532650399    0.150880290247
 C    2.741096905553   -4.440352650399   -0.009769709753
 O    2.362326905553   -3.236042650399    0.051390290247
 C    1.945776905553   -5.607242650399   -0.190359709753
 N    0.575136905553   -5.759272650399   -0.346929709753
 C    0.405326905553   -7.077052650399   -0.459549709753
 H   -0.552133094447   -7.572462650399   -0.597019709753
 H    1.709226905553   -8.777212650399   -0.441149709753
 K    1.774226905553   -0.830802650399    0.155900290247
 K   -0.320953094447   -3.357162650399   -0.298079709753
 C   -2.320649036283    6.687541873459    0.227030107727
 N   -0.950014665496    6.839574121169    0.383599668214
 C   -0.780203809324    8.157353532457    0.496222622850
 H    0.177262172746    8.652764193622    0.633686083021
 N   -1.963515427231    8.848954688878    0.419563879285
 H   -2.084103467428    9.857511443880    0.477829689162
 C   -2.972123933773    7.933894737436    0.246174631066
 C   -3.115969617810    5.520652072383    0.046440276214
 O   -2.737203024668    4.316351422262   -0.014716372141
 N   -4.466756488133    5.830212214200   -0.072980966285
 H   -5.078639174314    5.032017942554   -0.232034984360
 C   -5.017840563171    7.106608938354   -0.035370211069
 N   -4.290286262498    8.199624831662    0.128779397969
 N   -6.356876978894    7.206017025738   -0.219665370072
 H   -6.973152850488    6.409174722263   -0.134067742282
 H   -6.762661532270    8.128828479692   -0.114201609506
