34

 N    1.666779345266   -7.993839837881   -0.390534482941
 C    2.675389345266   -7.078789837881   -0.217144482941
 N    3.993549345266   -7.344509837881   -0.099744482941
 C    4.721109345266   -6.251499837881    0.064405517059
 N    4.170019345266   -4.975099837881    0.102015517059
 H    4.781899345266   -4.176909837881    0.261065517059
 N    6.060139345266   -6.350909837881    0.248705517059
 H    6.676419345266   -5.554069837881    0.163105517059
 H    6.465919345266   -7.273719837881    0.143235517059
 C    2.819239345266   -4.665539837881   -0.017414482941
 O    2.440469345266   -3.461229837881    0.043745517059
 C    2.023919345266   -5.832429837881   -0.198004482941
 N    0.653279345266   -5.984459837881   -0.354574482941
 C    0.483469345266   -7.302239837881   -0.467194482941
 H   -0.473990654734   -7.797649837881   -0.604664482941
 H    1.787369345266   -9.002399837881   -0.448794482941
 K    1.852369345266   -1.055989837881    0.148255517059
 K   -0.242810654734   -3.582349837881   -0.305724482941
 C   -2.439105689592    7.028904655258    0.238618871151
 N   -1.068471318804    7.180936902968    0.395188431637
 C   -0.898660462633    8.498716314257    0.507811386274
 H    0.058805519437    8.994126975422    0.645274846444
 N   -2.081972080540    9.190317470677    0.431152642709
 H   -2.202560120737   10.198874225679    0.489418452586
 C   -3.090580587082    8.275257519235    0.257763394490
 C   -3.234426271118    5.862014854182    0.058029039638
 O   -2.855659677977    4.657714204061   -0.003127608717
 N   -4.585213141442    6.171574995999   -0.061392202862
 H   -5.197095827622    5.373380724354   -0.220446220936
 C   -5.136297216480    7.447971720153   -0.023781447646
 N   -4.408742915807    8.540987613461    0.140368161392
 N   -6.475333632202    7.547379807537   -0.208076606648
 H   -7.091609503796    6.750537504062   -0.122478978859
 H   -6.881118185578    8.470191261491   -0.102612846083
