26

 C    2.115567910186    1.223323319755    0.696111946160
 H    2.213447910186    2.164723319755    1.250311946160
 C    2.115567910186    1.223323319755   -0.718148053840
 H    2.213447910186    2.164723319755   -1.272348053840
 C    2.120207910186    0.003953319755    1.404561946160
 H    2.164157910186    0.005293319755    2.496841946160
 C    2.120207910186    0.003953319755   -1.426598053840
 H    2.164157910186    0.005293319755   -2.518878053840
 C    2.180347910186   -1.213916680245    0.696231946160
 H    2.324667910186   -2.149656680245    1.249451946160
 C    2.180347910186   -1.213916680245   -0.718268053840
 H    2.324667910186   -2.149656680245   -1.271488053840
NA   -0.321982089814    2.246933319755   -0.011018053840
NA   -0.240082089814   -2.261866680245   -0.011018053840
 C   -1.950002034383   -1.218931494997   -0.689621230863
 H   -2.047874643371   -2.160335045780   -1.243813084902
 C   -1.950002260110   -1.218926647968    0.724647846702
 H   -2.047875045171   -2.160326394111    1.278846132522
 C   -1.954641949670    0.000444142381   -1.398070871905
 H   -1.998595315411   -0.000904046002   -2.490346052264
 C   -1.954642123807    0.000454105574    1.433089128078
 H   -1.998595623913   -0.000886395114    2.525364312491
 C   -2.014788649367    1.218314695213   -0.689749226257
 H   -2.159117545827    2.154049098518   -1.242974309310
 C   -2.014788694931    1.218319695953    0.724758867446
 H   -2.159117627494    2.154058013553    1.277977320321
