26

 C    2.308466922227    1.228451341543    0.703674885969
 H    2.406346922227    2.169851341543    1.257874885969
 C    2.308466922227    1.228451341543   -0.710585114031
 H    2.406346922227    2.169851341543   -1.264785114031
 C    2.313106922227    0.009081341543    1.412124885969
 H    2.357056922227    0.010421341543    2.504404885969
 C    2.313106922227    0.009081341543   -1.419035114031
 H    2.357056922227    0.010421341543   -2.511315114031
 C    2.373246922227   -1.208788658457    0.703794885969
 H    2.517566922227   -2.144528658457    1.257014885969
 C    2.373246922227   -1.208788658457   -0.710705114031
 H    2.517566922227   -2.144528658457   -1.263925114031
NA   -0.129083077773    2.252061341543   -0.003455114031
NA   -0.047183077773   -2.256738658457   -0.003455114031
 C   -2.256542995804   -1.227080571098   -0.701639700090
 H   -2.354415604792   -2.168484121881   -1.255831554129
 C   -2.256543221530   -1.227075724069    0.712629377474
 H   -2.354416006592   -2.168475470212    1.266827663294
 C   -2.261182911091   -0.007704933720   -1.410089341132
 H   -2.305136276832   -0.009053122103   -2.502364521491
 C   -2.261183085228   -0.007694970527    1.421070658850
 H   -2.305136585334   -0.009035471215    2.513345843264
 C   -2.321329610787    1.210165619112   -0.701767695485
 H   -2.465658507248    2.145900022416   -1.254992778538
 C   -2.321329656352    1.210170619852    0.712740398218
 H   -2.465658588915    2.145908937451    1.265958851093
