26

 C    2.424206329452    1.231528154616    0.708212649855
 H    2.522086329452    2.172928154616    1.262412649855
 C    2.424206329452    1.231528154616   -0.706047350145
 H    2.522086329452    2.172928154616   -1.260247350145
 C    2.428846329452    0.012158154616    1.416662649855
 H    2.472796329452    0.013498154616    2.508942649855
 C    2.428846329452    0.012158154616   -1.414497350145
 H    2.472796329452    0.013498154616   -2.506777350145
 C    2.488986329452   -1.205711845384    0.708332649855
 H    2.633306329452   -2.141451845384    1.261552649855
 C    2.488986329452   -1.205711845384   -0.706167350145
 H    2.633306329452   -2.141451845384   -1.259387350145
NA   -0.013343670548    2.255138154616    0.001082649855
NA    0.068556329452   -2.253661845384    0.001082649855
 C   -2.440467572656   -1.231970016759   -0.708850781627
 H   -2.538340181644   -2.173373567542   -1.263042635666
 C   -2.440467798383   -1.231965169730    0.705418295937
 H   -2.538340583444   -2.173364915873    1.259616581757
 C   -2.445107487943   -0.012594379381   -1.417300422669
 H   -2.489060853684   -0.013942567764   -2.509575603028
 C   -2.445107662080   -0.012584416188    1.413859577313
 H   -2.489061162187   -0.013924916876    2.506134761727
 C   -2.505254187640    1.205276173451   -0.708978777021
 H   -2.649583084100    2.141010576756   -1.262203860074
 C   -2.505254233204    1.205281174191    0.705529316682
 H   -2.649583165768    2.141019491791    1.258747769556
