26

 C    2.501365934268    1.233579363331    0.711237825778
 H    2.599245934268    2.174979363331    1.265437825778
 C    2.501365934268    1.233579363331   -0.703022174222
 H    2.599245934268    2.174979363331   -1.257222174222
 C    2.506005934268    0.014209363331    1.419687825778
 H    2.549955934268    0.015549363331    2.511967825778
 C    2.506005934268    0.014209363331   -1.411472174222
 H    2.549955934268    0.015549363331   -2.503752174222
 C    2.566145934268   -1.203660636669    0.711357825778
 H    2.710465934268   -2.139400636669    1.264577825778
 C    2.566145934268   -1.203660636669   -0.703142174222
 H    2.710465934268   -2.139400636669   -1.256362174222
NA    0.063815934268    2.257189363331    0.004107825778
NA    0.145715934268   -2.251610636669    0.004107825778
 C   -2.563083957225   -1.235229647199   -0.713658169318
 H   -2.660956566212   -2.176633197982   -1.267850023357
 C   -2.563084182951   -1.235224800170    0.700610908246
 H   -2.660956968013   -2.176624546314    1.254809194066
 C   -2.567723872512   -0.015854009821   -1.422107810360
 H   -2.611677238252   -0.017202198204   -2.514382990719
 C   -2.567724046649   -0.015844046629    1.409052189622
 H   -2.611677546755   -0.017184547316    2.501327374036
 C   -2.627870572208    1.202016543011   -0.713786164712
 H   -2.772199468669    2.137750946315   -1.267011247765
 C   -2.627870617772    1.202021543751    0.700721928991
 H   -2.772199550336    2.137759861350    1.253940381865
