26

 C    2.617105341493    1.236656176403    0.715775589664
 H    2.714985341493    2.178056176403    1.269975589664
 C    2.617105341493    1.236656176403   -0.698484410336
 H    2.714985341493    2.178056176403   -1.252684410336
 C    2.621745341493    0.017286176403    1.424225589664
 H    2.665695341493    0.018626176403    2.516505589664
 C    2.621745341493    0.017286176403   -1.406934410336
 H    2.665695341493    0.018626176403   -2.499214410336
 C    2.681885341493   -1.200583823597    0.715895589664
 H    2.826205341493   -2.136323823597    1.269115589664
 C    2.681885341493   -1.200583823597   -0.698604410336
 H    2.826205341493   -2.136323823597   -1.251824410336
NA    0.179555341493    2.260266176403    0.008645589664
NA    0.261455341493   -2.248533823597    0.008645589664
 C   -2.747008534077   -1.240119092860   -0.720869250855
 H   -2.844881143065   -2.181522643643   -1.275061104894
 C   -2.747008759804   -1.240114245831    0.693399826710
 H   -2.844881544865   -2.181513991974    1.247598112530
 C   -2.751648449364   -0.020743455482   -1.429318891897
 H   -2.795601815105   -0.022091643865   -2.521594072256
 C   -2.751648623501   -0.020733492289    1.401841108086
 H   -2.795602123607   -0.022073992977    2.494116292500
 C   -2.811795149061    1.197127097350   -0.720997246249
 H   -2.956124045521    2.132861500654   -1.274222329302
 C   -2.811795194625    1.197132098090    0.693510847454
 H   -2.956124127189    2.132870415690    1.246729300329
