26

 C    2.655685143901    1.237681780761    0.717288177626
 H    2.753565143901    2.179081780761    1.271488177626
 C    2.655685143901    1.237681780761   -0.696971822374
 H    2.753565143901    2.179081780761   -1.251171822374
 C    2.660325143901    0.018311780761    1.425738177626
 H    2.704275143901    0.019651780761    2.518018177626
 C    2.660325143901    0.018311780761   -1.405421822374
 H    2.704275143901    0.019651780761   -2.497701822374
 C    2.720465143901   -1.199558219239    0.717408177626
 H    2.864785143901   -2.135298219239    1.270628177626
 C    2.720465143901   -1.199558219239   -0.697091822374
 H    2.864785143901   -2.135298219239   -1.250311822374
NA    0.218135143901    2.261291780761    0.010158177626
NA    0.300035143901   -2.247508219239    0.010158177626
 C   -2.808316726361   -1.241748908080   -0.723272944700
 H   -2.906189335349   -2.183152458863   -1.277464798739
 C   -2.808316952088   -1.241744061051    0.690996132864
 H   -2.906189737149   -2.183143807195    1.245194418684
 C   -2.812956641648   -0.022373270702   -1.431722585742
 H   -2.856910007389   -0.023721459085   -2.523997766101
 C   -2.812956815785   -0.022363307509    1.399437414240
 H   -2.856910315892   -0.023703808197    2.491712598654
 C   -2.873103341345    1.195497282130   -0.723400940094
 H   -3.017432237805    2.131231685434   -1.276626023147
 C   -2.873103386909    1.195502282870    0.691107153608
 H   -3.017432319473    2.131240600469    1.244325606483
