26

 C    2.848584155942    1.242809802548    0.724851117435
 H    2.946464155942    2.184209802548    1.279051117435
 C    2.848584155942    1.242809802548   -0.689408882565
 H    2.946464155942    2.184209802548   -1.243608882565
 C    2.853224155942    0.023439802548    1.433301117435
 H    2.897174155942    0.024779802548    2.525581117435
 C    2.853224155942    0.023439802548   -1.397858882565
 H    2.897174155942    0.024779802548   -2.490138882565
 C    2.913364155942   -1.194430197452    0.724971117435
 H    3.057684155942   -2.130170197452    1.278191117435
 C    2.913364155942   -1.194430197452   -0.689528882565
 H    3.057684155942   -2.130170197452   -1.242748882565
NA    0.411034155942    2.266419802548    0.017721117435
NA    0.492934155942   -2.242380197452    0.017721117435
 C   -3.114857687782   -1.249897984181   -0.735291413928
 H   -3.212730296770   -2.191301534964   -1.289483267967
 C   -3.114857913509   -1.249893137153    0.678977663636
 H   -3.212730698570   -2.191292883296    1.233175949457
 C   -3.119497603069   -0.030522346803   -1.443741054970
 H   -3.163450968810   -0.031870535186   -2.536016235329
 C   -3.119497777206   -0.030512383611    1.387418945012
 H   -3.163451277312   -0.031852884298    2.479694129426
 C   -3.179644302766    1.187348206029   -0.735419409322
 H   -3.323973199226    2.123082609333   -1.288644492375
 C   -3.179644348330    1.187353206769    0.679088684381
 H   -3.323973280894    2.123091524368    1.232307137256
