26

 C    2.925743760759    1.244861011263    0.727876293359
 H    3.023623760759    2.186261011263    1.282076293359
 C    2.925743760759    1.244861011263   -0.686383706641
 H    3.023623760759    2.186261011263   -1.240583706641
 C    2.930383760759    0.025491011263    1.436326293359
 H    2.974333760759    0.026831011263    2.528606293359
 C    2.930383760759    0.025491011263   -1.394833706641
 H    2.974333760759    0.026831011263   -2.487113706641
 C    2.990523760759   -1.192378988737    0.727996293359
 H    3.134843760759   -2.128118988737    1.281216293359
 C    2.990523760759   -1.192378988737   -0.686503706641
 H    3.134843760759   -2.128118988737   -1.239723706641
NA    0.488193760759    2.268471011263    0.020746293359
NA    0.570093760759   -2.240328988737    0.020746293359
 C   -3.237474072351   -1.253157614622   -0.740098801619
 H   -3.335346681338   -2.194561165405   -1.294290655658
 C   -3.237474298077   -1.253152767593    0.674170275945
 H   -3.335347083138   -2.194552513736    1.228368561765
 C   -3.242113987638   -0.033781977244   -1.448548442661
 H   -3.286067353378   -0.035130165627   -2.540823623020
 C   -3.242114161774   -0.033772014051    1.382611557321
 H   -3.286067661881   -0.035112514739    2.474886741735
 C   -3.302260687334    1.184088575588   -0.740226797013
 H   -3.446589583795    2.119822978893   -1.293451880066
 C   -3.302260732898    1.184093576328    0.674281296690
 H   -3.446589665462    2.119831893928    1.227499749564
