26

 C    3.080062970392    1.248963428694    0.733926645206
 H    3.177942970392    2.190363428694    1.288126645206
 C    3.080062970392    1.248963428694   -0.680333354794
 H    3.177942970392    2.190363428694   -1.234533354794
 C    3.084702970392    0.029593428694    1.442376645206
 H    3.128652970392    0.030933428694    2.534656645206
 C    3.084702970392    0.029593428694   -1.388783354794
 H    3.128652970392    0.030933428694   -2.481063354794
 C    3.144842970392   -1.188276571306    0.734046645206
 H    3.289162970392   -2.124016571306    1.287266645206
 C    3.144842970392   -1.188276571306   -0.680453354794
 H    3.289162970392   -2.124016571306   -1.233673354794
NA    0.642512970392    2.272573428694    0.026796645206
NA    0.724412970392   -2.236226571306    0.026796645206
 C   -3.482706841487   -1.259676875503   -0.749713577001
 H   -3.580579450475   -2.201080426286   -1.303905431040
 C   -3.482707067214   -1.259672028474    0.664555500563
 H   -3.580579852275   -2.201071774617    1.218753786383
 C   -3.487346756774   -0.040301238125   -1.458163218043
 H   -3.531300122515   -0.041649426508   -2.550438398402
 C   -3.487346930911   -0.040291274932    1.372996781939
 H   -3.531300431017   -0.041631775620    2.465271966353
 C   -3.547493456471    1.177569314707   -0.749841572395
 H   -3.691822352931    2.113303718012   -1.303066655448
 C   -3.547493502035    1.177574315447    0.664666521308
 H   -3.691822434598    2.113312633047    1.217884974182
