26

 C    3.118642772800    1.249989033051    0.735439233168
 H    3.216522772800    2.191389033051    1.289639233168
 C    3.118642772800    1.249989033051   -0.678820766832
 H    3.216522772800    2.191389033051   -1.233020766832
 C    3.123282772800    0.030619033051    1.443889233168
 H    3.167232772800    0.031959033051    2.536169233168
 C    3.123282772800    0.030619033051   -1.387270766832
 H    3.167232772800    0.031959033051   -2.479550766832
 C    3.183422772800   -1.187250966949    0.735559233168
 H    3.327742772800   -2.122990966949    1.288779233168
 C    3.183422772800   -1.187250966949   -0.678940766832
 H    3.327742772800   -2.122990966949   -1.232160766832
NA    0.681092772800    2.273599033051    0.028309233168
NA    0.762992772800   -2.235200966949    0.028309233168
 C   -3.544015033771   -1.261306690723   -0.752117270847
 H   -3.641887642759   -2.202710241506   -1.306309124886
 C   -3.544015259498   -1.261301843694    0.662151806718
 H   -3.641888044559   -2.202701589837    1.216350092538
 C   -3.548654949058   -0.041931053345   -1.460566911889
 H   -3.592608314799   -0.043279241728   -2.552842092248
 C   -3.548655123195   -0.041921090152    1.370593088094
 H   -3.592608623302   -0.043261590840    2.462868272508
 C   -3.608801648755    1.175939499487   -0.752245266241
 H   -3.753130545215    2.111673902791   -1.305470349294
 C   -3.608801694319    1.175944500227    0.662262827462
 H   -3.753130626883    2.111682817826    1.215481280337
