26

 C    3.157222575208    1.251014637409    0.736951821130
 H    3.255102575208    2.192414637409    1.291151821130
 C    3.157222575208    1.251014637409   -0.677308178870
 H    3.255102575208    2.192414637409   -1.231508178870
 C    3.161862575208    0.031644637409    1.445401821130
 H    3.205812575208    0.032984637409    2.537681821130
 C    3.161862575208    0.031644637409   -1.385758178870
 H    3.205812575208    0.032984637409   -2.478038178870
 C    3.222002575208   -1.186225362591    0.737071821130
 H    3.366322575208   -2.121965362591    1.290291821130
 C    3.222002575208   -1.186225362591   -0.677428178870
 H    3.366322575208   -2.121965362591   -1.230648178870
NA    0.719672575208    2.274624637409    0.029821821130
NA    0.801572575208   -2.234175362591    0.029821821130
 C   -3.605323226056   -1.262936505943   -0.754520964692
 H   -3.703195835043   -2.204340056726   -1.308712818731
 C   -3.605323451782   -1.262931658915    0.659748112872
 H   -3.703196236843   -2.204331405058    1.213946398692
 C   -3.609963141343   -0.043560868565   -1.462970605734
 H   -3.653916507083   -0.044909056948   -2.555245786093
 C   -3.609963315479   -0.043550905373    1.368189394248
 H   -3.653916815586   -0.044891406060    2.460464578662
 C   -3.670109841039    1.174309684267   -0.754648960086
 H   -3.814438737500    2.110044087571   -1.307874043139
 C   -3.670109886603    1.174314685007    0.659859133616
 H   -3.814438819167    2.110053002606    1.213077586491
