26

 C    3.195802377617    1.252040241766    0.738464409091
 H    3.293682377617    2.193440241766    1.292664409091
 C    3.195802377617    1.252040241766   -0.675795590909
 H    3.293682377617    2.193440241766   -1.229995590909
 C    3.200442377617    0.032670241766    1.446914409091
 H    3.244392377617    0.034010241766    2.539194409091
 C    3.200442377617    0.032670241766   -1.384245590909
 H    3.244392377617    0.034010241766   -2.476525590909
 C    3.260582377617   -1.185199758234    0.738584409091
 H    3.404902377617   -2.120939758234    1.291804409091
 C    3.260582377617   -1.185199758234   -0.675915590909
 H    3.404902377617   -2.120939758234   -1.229135590909
NA    0.758252377617    2.275650241766    0.031334409091
NA    0.840152377617   -2.233149758234    0.031334409091
 C   -3.666631418340   -1.264566321164   -0.756924658538
 H   -3.764504027327   -2.205969871947   -1.311116512577
 C   -3.666631644066   -1.264561474135    0.657344419027
 H   -3.764504429128   -2.205961220278    1.211542704847
 C   -3.671271333627   -0.045190683785   -1.465374299580
 H   -3.715224699367   -0.046538872169   -2.557649479939
 C   -3.671271507764   -0.045180720593    1.365785700403
 H   -3.715225007870   -0.046521221281    2.458060884816
 C   -3.731418033323    1.172679869046   -0.757052653932
 H   -3.875746929784    2.108414272351   -1.310277736985
 C   -3.731418078887    1.172684869786    0.657455439771
 H   -3.875747011451    2.108423187386    1.210673892646
