26

 C    3.234382180025    1.253065846124    0.739976997053
 H    3.332262180025    2.194465846124    1.294176997053
 C    3.234382180025    1.253065846124   -0.674283002947
 H    3.332262180025    2.194465846124   -1.228483002947
 C    3.239022180025    0.033695846124    1.448426997053
 H    3.282972180025    0.035035846124    2.540706997053
 C    3.239022180025    0.033695846124   -1.382733002947
 H    3.282972180025    0.035035846124   -2.475013002947
 C    3.299162180025   -1.184174153876    0.740096997053
 H    3.443482180025   -2.119914153876    1.293316997053
 C    3.299162180025   -1.184174153876   -0.674403002947
 H    3.443482180025   -2.119914153876   -1.227623002947
NA    0.796832180025    2.276675846124    0.032846997053
NA    0.878732180025   -2.232124153876    0.032846997053
 C   -3.727939610624   -1.266196136384   -0.759328352383
 H   -3.825812219611   -2.207599687167   -1.313520206422
 C   -3.727939836350   -1.266191289355    0.654940725181
 H   -3.825812621412   -2.207591035498    1.209139011001
 C   -3.732579525911   -0.046820499006   -1.467777993425
 H   -3.776532891652   -0.048168687389   -2.560053173784
 C   -3.732579700048   -0.046810535813    1.363382006557
 H   -3.776533200154   -0.048151036501    2.455657190971
 C   -3.792726225607    1.171050053826   -0.759456347777
 H   -3.937055122068    2.106784457131   -1.312681430830
 C   -3.792726271171    1.171055054566    0.655051745925
 H   -3.937055203735    2.106793372166    1.208270198800
