26

 C    3.350121587250    1.256142659196    0.744514760939
 H    3.448001587250    2.197542659196    1.298714760939
 C    3.350121587250    1.256142659196   -0.669745239061
 H    3.448001587250    2.197542659196   -1.223945239061
 C    3.354761587250    0.036772659196    1.452964760939
 H    3.398711587250    0.038112659196    2.545244760939
 C    3.354761587250    0.036772659196   -1.378195239061
 H    3.398711587250    0.038112659196   -2.470475239061
 C    3.414901587250   -1.181097340804    0.744634760939
 H    3.559221587250   -2.116837340804    1.297854760939
 C    3.414901587250   -1.181097340804   -0.669865239061
 H    3.559221587250   -2.116837340804   -1.223085239061
NA    0.912571587250    2.279752659196    0.037384760939
NA    0.994471587250   -2.229047340804    0.037384760939
 C   -3.911864187476   -1.271085582045   -0.766539433920
 H   -4.009736796464   -2.212489132828   -1.320731287959
 C   -3.911864413203   -1.271080735016    0.647729643644
 H   -4.009737198264   -2.212480481159    1.201927929465
 C   -3.916504102763   -0.051709944666   -1.474989074962
 H   -3.960457468504   -0.053058133050   -2.567264255321
 C   -3.916504276900   -0.051699981474    1.356170925020
 H   -3.960457777007   -0.053040482162    2.448446109434
 C   -3.976650802460    1.166160608165   -0.766667429314
 H   -4.120979698920    2.101895011470   -1.319892512367
 C   -3.976650848024    1.166165608905    0.647840664389
 H   -4.120979780588    2.101903926505    1.201059117264
