26

 C    3.388701389658    1.257168263554    0.746027348901
 H    3.486581389658    2.198568263554    1.300227348901
 C    3.388701389658    1.257168263554   -0.668232651099
 H    3.486581389658    2.198568263554   -1.222432651099
 C    3.393341389658    0.037798263554    1.454477348901
 H    3.437291389658    0.039138263554    2.546757348901
 C    3.393341389658    0.037798263554   -1.376682651099
 H    3.437291389658    0.039138263554   -2.468962651099
 C    3.453481389658   -1.180071736446    0.746147348901
 H    3.597801389658   -2.115811736446    1.299367348901
 C    3.453481389658   -1.180071736446   -0.668352651099
 H    3.597801389658   -2.115811736446   -1.221572651099
NA    0.951151389658    2.280778263554    0.038897348901
NA    1.033051389658   -2.228021736446    0.038897348901
 C   -3.973172379761   -1.272715397265   -0.768943127765
 H   -4.071044988748   -2.214118948048   -1.323134981805
 C   -3.973172605487   -1.272710550236    0.645325949799
 H   -4.071045390548   -2.214110296379    1.199524235619
 C   -3.977812295048   -0.053339759887   -1.477392768808
 H   -4.021765660788   -0.054687948270   -2.569667949166
 C   -3.977812469184   -0.053329796694    1.353767231175
 H   -4.021765969291   -0.054670297382    2.446042415589
 C   -4.037958994744    1.164530792945   -0.769071123160
 H   -4.182287891205    2.100265196250   -1.322296206213
 C   -4.037959040308    1.164535793685    0.645436970543
 H   -4.182287972872    2.100274111285    1.198655423418
