26

 C    3.465860994474    1.259219472269    0.749052524824
 H    3.563740994474    2.200619472269    1.303252524824
 C    3.465860994474    1.259219472269   -0.665207475176
 H    3.563740994474    2.200619472269   -1.219407475176
 C    3.470500994474    0.039849472269    1.457502524824
 H    3.514450994474    0.041189472269    2.549782524824
 C    3.470500994474    0.039849472269   -1.373657475176
 H    3.514450994474    0.041189472269   -2.465937475176
 C    3.530640994474   -1.178020527731    0.749172524824
 H    3.674960994474   -2.113760527731    1.302392524824
 C    3.530640994474   -1.178020527731   -0.665327475176
 H    3.674960994474   -2.113760527731   -1.218547475176
NA    1.028310994474    2.282829472269    0.041922524824
NA    1.110210994474   -2.225970527731    0.041922524824
 C   -4.095788764329   -1.275975027705   -0.773750515457
 H   -4.193661373316   -2.217378578488   -1.327942369496
 C   -4.095788990055   -1.275970180677    0.640518562108
 H   -4.193661775117   -2.217369926820    1.194716847928
 C   -4.100428679616   -0.056599390327   -1.482200156499
 H   -4.144382045357   -0.057947578710   -2.574475336858
 C   -4.100428853753   -0.056589427135    1.348959843484
 H   -4.144382353859   -0.057929927822    2.441235027898
 C   -4.160575379312    1.161271162505   -0.773878510851
 H   -4.304904275773    2.097005565809   -1.327103593904
 C   -4.160575424876    1.161276163245    0.640629582852
 H   -4.304904357440    2.097014480844    1.193848035727
