26

 C    3.543020599291    1.261270680984    0.752077700748
 H    3.640900599291    2.202670680984    1.306277700748
 C    3.543020599291    1.261270680984   -0.662182299252
 H    3.640900599291    2.202670680984   -1.216382299252
 C    3.547660599291    0.041900680984    1.460527700748
 H    3.591610599291    0.043240680984    2.552807700748
 C    3.547660599291    0.041900680984   -1.370632299252
 H    3.591610599291    0.043240680984   -2.462912299252
 C    3.607800599291   -1.175969319016    0.752197700748
 H    3.752120599291   -2.111709319016    1.305417700748
 C    3.607800599291   -1.175969319016   -0.662302299252
 H    3.752120599291   -2.111709319016   -1.215522299252
NA    1.105470599291    2.284880680984    0.044947700748
NA    1.187370599291   -2.223919319016    0.044947700748
 C   -4.218405148897   -1.279234658146   -0.778557903148
 H   -4.316277757885   -2.220638208929   -1.332749757187
 C   -4.218405374624   -1.279229811117    0.635711174417
 H   -4.316278159685   -2.220629557260    1.189909460237
 C   -4.223045064184   -0.059859020768   -1.487007544190
 H   -4.266998429925   -0.061207209151   -2.579282724549
 C   -4.223045238321   -0.059849057575    1.344152455793
 H   -4.266998738427   -0.061189558263    2.436427640207
 C   -4.283191763881    1.158011532064   -0.778685898542
 H   -4.427520660341    2.093745935369   -1.331910981595
 C   -4.283191809445    1.158016532804    0.635822195161
 H   -4.427520742008    2.093754850404    1.189040648036
