26

 C    3.697339808924    1.265373098414    0.758128052595
 H    3.795219808924    2.206773098414    1.312328052595
 C    3.697339808924    1.265373098414   -0.656131947405
 H    3.795219808924    2.206773098414   -1.210331947405
 C    3.701979808924    0.046003098414    1.466578052595
 H    3.745929808924    0.047343098414    2.558858052595
 C    3.701979808924    0.046003098414   -1.364581947405
 H    3.745929808924    0.047343098414   -2.456861947405
 C    3.762119808924   -1.171866901586    0.758248052595
 H    3.906439808924   -2.107606901586    1.311468052595
 C    3.762119808924   -1.171866901586   -0.656251947405
 H    3.906439808924   -2.107606901586   -1.209471947405
NA    1.259789808924    2.288983098414    0.050998052595
NA    1.341689808924   -2.219816901586    0.050998052595
 C   -4.463637918034   -1.285753919027   -0.788172678530
 H   -4.561510527021   -2.227157469810   -1.342364532569
 C   -4.463638143760   -1.285749071998    0.626096399035
 H   -4.561510928822   -2.227148818141    1.180294684855
 C   -4.468277833321   -0.066378281649   -1.496622319572
 H   -4.512231199062   -0.067726470032   -2.588897499931
 C   -4.468278007458   -0.066368318456    1.334537680411
 H   -4.512231507564   -0.067708819144    2.426812864824
 C   -4.528424533017    1.151492271183   -0.788300673924
 H   -4.672753429478    2.087226674488   -1.341525756977
 C   -4.528424578581    1.151497271923    0.626207419779
 H   -4.672753511145    2.087235589523    1.179425872654
