26

 C    3.735919611332    1.266398702772    0.759640640557
 H    3.833799611332    2.207798702772    1.313840640557
 C    3.735919611332    1.266398702772   -0.654619359443
 H    3.833799611332    2.207798702772   -1.208819359443
 C    3.740559611332    0.047028702772    1.468090640557
 H    3.784509611332    0.048368702772    2.560370640557
 C    3.740559611332    0.047028702772   -1.363069359443
 H    3.784509611332    0.048368702772   -2.455349359443
 C    3.800699611332   -1.170841297228    0.759760640557
 H    3.945019611332   -2.106581297228    1.312980640557
 C    3.800699611332   -1.170841297228   -0.654739359443
 H    3.945019611332   -2.106581297228   -1.207959359443
NA    1.298369611332    2.290008702772    0.052510640557
NA    1.380269611332   -2.218791297228    0.052510640557
 C   -4.524946110318   -1.287383734247   -0.790576372375
 H   -4.622818719306   -2.228787285030   -1.344768226414
 C   -4.524946336044   -1.287378887218    0.623692705189
 H   -4.622819121106   -2.228778633361    1.177890991009
 C   -4.529586025605   -0.068008096869   -1.499026013417
 H   -4.573539391346   -0.069356285252   -2.591301193776
 C   -4.529586199742   -0.067998133676    1.332133986565
 H   -4.573539699848   -0.069338634364    2.424409170979
 C   -4.589732725301    1.149862455963   -0.790704367769
 H   -4.734061621762    2.085596859267   -1.343929450822
 C   -4.589732770866    1.149867456703    0.623803725933
 H   -4.734061703429    2.085605774303    1.177022178808
