26

 C    3.890238820965    1.270501120202    0.765690992404
 H    3.988118820965    2.211901120202    1.319890992404
 C    3.890238820965    1.270501120202   -0.648569007596
 H    3.988118820965    2.211901120202   -1.202769007596
 C    3.894878820965    0.051131120202    1.474140992404
 H    3.938828820965    0.052471120202    2.566420992404
 C    3.894878820965    0.051131120202   -1.357019007596
 H    3.938828820965    0.052471120202   -2.449299007596
 C    3.955018820965   -1.166738879798    0.765810992404
 H    4.099338820965   -2.102478879798    1.319030992404
 C    3.955018820965   -1.166738879798   -0.648689007596
 H    4.099338820965   -2.102478879798   -1.201909007596
NA    1.452688820965    2.294111120202    0.058560992404
NA    1.534588820965   -2.214688879798    0.058560992404
 C   -4.770178879455   -1.293902995128   -0.800191147757
 H   -4.868051488442   -2.235306545911   -1.354383001796
 C   -4.770179105181   -1.293898148099    0.614077929807
 H   -4.868051890243   -2.235297894242    1.168276215627
 C   -4.774818794742   -0.074527357750   -1.508640788800
 H   -4.818772160482   -0.075875546133   -2.600915969158
 C   -4.774818968878   -0.074517394557    1.322519211183
 H   -4.818772468985   -0.075857895245    2.414794395597
 C   -4.834965494438    1.143343195082   -0.800319143152
 H   -4.979294390899    2.079077598386   -1.353544226205
 C   -4.834965540002    1.143348195822    0.614188950551
 H   -4.979294472566    2.079086513422    1.167407403426
