26

 C    4.044558030598    1.274603537632    0.771741344252
 H    4.142438030598    2.216003537632    1.325941344252
 C    4.044558030598    1.274603537632   -0.642518655748
 H    4.142438030598    2.216003537632   -1.196718655748
 C    4.049198030598    0.055233537632    1.480191344252
 H    4.093148030598    0.056573537632    2.572471344252
 C    4.049198030598    0.055233537632   -1.350968655748
 H    4.093148030598    0.056573537632   -2.443248655748
 C    4.109338030598   -1.162636462368    0.771861344252
 H    4.253658030598   -2.098376462368    1.325081344252
 C    4.109338030598   -1.162636462368   -0.642638655748
 H    4.253658030598   -2.098376462368   -1.195858655748
NA    1.607008030598    2.298213537632    0.064611344252
NA    1.688908030598   -2.210586462368    0.064611344252
 C   -5.015411648591   -1.300422256009   -0.809805923140
 H   -5.113284257579   -2.241825806792   -1.363997777179
 C   -5.015411874318   -1.300417408980    0.604463154425
 H   -5.113284659379   -2.241817155123    1.158661440245
 C   -5.020051563878   -0.081046618631   -1.518255564182
 H   -5.064004929619   -0.082394807014   -2.610530744541
 C   -5.020051738015   -0.081036655438    1.312904435801
 H   -5.064005238122   -0.082377156126    2.405179620215
 C   -5.080198263575    1.136823934201   -0.809933918534
 H   -5.224527160035    2.072558337506   -1.363159001587
 C   -5.080198309139    1.136828934941    0.604574175169
 H   -5.224527241703    2.072567252541    1.157792628044
