26

 C    4.083137833006    1.275629141989    0.773253932214
 H    4.181017833006    2.217029141989    1.327453932214
 C    4.083137833006    1.275629141989   -0.641006067786
 H    4.181017833006    2.217029141989   -1.195206067786
 C    4.087777833006    0.056259141989    1.481703932214
 H    4.131727833006    0.057599141989    2.573983932214
 C    4.087777833006    0.056259141989   -1.349456067786
 H    4.131727833006    0.057599141989   -2.441736067786
 C    4.147917833006   -1.161610858011    0.773373932214
 H    4.292237833006   -2.097350858011    1.326593932214
 C    4.147917833006   -1.161610858011   -0.641126067786
 H    4.292237833006   -2.097350858011   -1.194346067786
NA    1.645587833006    2.299239141989    0.066123932214
NA    1.727487833006   -2.209560858011    0.066123932214
 C   -5.076719840876   -1.302052071229   -0.812209616985
 H   -5.174592449863   -2.243455622012   -1.366401471024
 C   -5.076720066602   -1.302047224200    0.602059460579
 H   -5.174592851663   -2.243446970344    1.156257746399
 C   -5.081359756162   -0.082676433851   -1.520659258027
 H   -5.125313121903   -0.084024622234   -2.612934438386
 C   -5.081359930299   -0.082666470658    1.310500741955
 H   -5.125313430406   -0.084006971346    2.402775926369
 C   -5.141506455859    1.135194118981   -0.812337612379
 H   -5.285835352320    2.070928522285   -1.365562695432
 C   -5.141506501423    1.135199119721    0.602170481324
 H   -5.285835433987    2.070937437320    1.155388934198
