26

 C    4.160297437823    1.277680350704    0.776279108137
 H    4.258177437823    2.219080350704    1.330479108137
 C    4.160297437823    1.277680350704   -0.637980891863
 H    4.258177437823    2.219080350704   -1.192180891863
 C    4.164937437823    0.058310350704    1.484729108137
 H    4.208887437823    0.059650350704    2.577009108137
 C    4.164937437823    0.058310350704   -1.346430891863
 H    4.208887437823    0.059650350704   -2.438710891863
 C    4.225077437823   -1.159559649296    0.776399108137
 H    4.369397437823   -2.095299649296    1.329619108137
 C    4.225077437823   -1.159559649296   -0.638100891863
 H    4.369397437823   -2.095299649296   -1.191320891863
NA    1.722747437823    2.301290350704    0.069149108137
NA    1.804647437823   -2.207509649296    0.069149108137
 C   -5.199336225444   -1.305311701670   -0.817017004676
 H   -5.297208834431   -2.246715252453   -1.371208858715
 C   -5.199336451170   -1.305306854641    0.597252072888
 H   -5.297209236232   -2.246706600784    1.151450358708
 C   -5.203976140731   -0.085936064292   -1.525466645718
 H   -5.247929506472   -0.087284252675   -2.617741826077
 C   -5.203976314868   -0.085926101099    1.305693354264
 H   -5.247929814974   -0.087266601787    2.397968538678
 C   -5.264122840427    1.131934488540   -0.817145000070
 H   -5.408451736888    2.067668891845   -1.370370083123
 C   -5.264122885991    1.131939489280    0.597363093633
 H   -5.408451818555    2.067677806880    1.150581546507
