26

 C    4.198877240231    1.278705955062    0.777791696099
 H    4.296757240231    2.220105955062    1.331991696099
 C    4.198877240231    1.278705955062   -0.636468303901
 H    4.296757240231    2.220105955062   -1.190668303901
 C    4.203517240231    0.059335955062    1.486241696099
 H    4.247467240231    0.060675955062    2.578521696099
 C    4.203517240231    0.059335955062   -1.344918303901
 H    4.247467240231    0.060675955062   -2.437198303901
 C    4.263657240231   -1.158534044938    0.777911696099
 H    4.407977240231   -2.094274044938    1.331131696099
 C    4.263657240231   -1.158534044938   -0.636588303901
 H    4.407977240231   -2.094274044938   -1.189808303901
NA    1.761327240231    2.302315955062    0.070661696099
NA    1.843227240231   -2.206484044938    0.070661696099
 C   -5.260644417728   -1.306941516890   -0.819420698522
 H   -5.358517026716   -2.248345067673   -1.373612552561
 C   -5.260644643454   -1.306936669861    0.594848379043
 H   -5.358517428516   -2.248336416004    1.149046664863
 C   -5.265284333015   -0.087565879512   -1.527870339564
 H   -5.309237698756   -0.088914067895   -2.620145519923
 C   -5.265284507152   -0.087555916319    1.303289660419
 H   -5.309238007258   -0.088896417007    2.395564844832
 C   -5.325431032711    1.130304673320   -0.819548693916
 H   -5.469759929172    2.066039076625   -1.372773776969
 C   -5.325431078276    1.130309674060    0.594959399787
 H   -5.469760010839    2.066047991660    1.148177852662
