26

 C    4.430356054680    1.284859581207    0.786867223870
 H    4.528236054680    2.226259581207    1.341067223870
 C    4.430356054680    1.284859581207   -0.627392776130
 H    4.528236054680    2.226259581207   -1.181592776130
 C    4.434996054680    0.065489581207    1.495317223870
 H    4.478946054680    0.066829581207    2.587597223870
 C    4.434996054680    0.065489581207   -1.335842776130
 H    4.478946054680    0.066829581207   -2.428122776130
 C    4.495136054680   -1.152380418793    0.786987223870
 H    4.639456054680   -2.088120418793    1.340207223870
 C    4.495136054680   -1.152380418793   -0.627512776130
 H    4.639456054680   -2.088120418793   -1.180732776130
NA    1.992806054680    2.308469581207    0.079737223870
NA    2.074706054680   -2.200330418793    0.079737223870
 C   -5.628493571433   -1.316720408211   -0.833842861595
 H   -5.726366180421   -2.258123958994   -1.388034715634
 C   -5.628493797159   -1.316715561183    0.580426215969
 H   -5.726366582221   -2.258115307326    1.134624501789
 C   -5.633133486720   -0.097344770833   -1.542292502637
 H   -5.677086852461   -0.098692959216   -2.634567682996
 C   -5.633133660857   -0.097334807641    1.288867497345
 H   -5.677087160963   -0.098675308328    2.381142681759
 C   -5.693280186416    1.120525781999   -0.833970856989
 H   -5.837609082877    2.056260185303   -1.387195940042
 C   -5.693280231981    1.120530782739    0.580537236714
 H   -5.837609164544    2.056269100338    1.133755689588
