26

 C    4.661834869130    1.291013207352    0.795942751641
 H    4.759714869130    2.232413207352    1.350142751641
 C    4.661834869130    1.291013207352   -0.618317248359
 H    4.759714869130    2.232413207352   -1.172517248359
 C    4.666474869130    0.071643207352    1.504392751641
 H    4.710424869130    0.072983207352    2.596672751641
 C    4.666474869130    0.071643207352   -1.326767248359
 H    4.710424869130    0.072983207352   -2.419047248359
 C    4.726614869130   -1.146226792648    0.796062751641
 H    4.870934869130   -2.081966792648    1.349282751641
 C    4.726614869130   -1.146226792648   -0.618437248359
 H    4.870934869130   -2.081966792648   -1.171657248359
NA    2.224284869130    2.314623207352    0.088812751641
NA    2.306184869130   -2.194176792648    0.088812751641
 C   -5.996342725138   -1.326499299533   -0.848265024668
 H   -6.094215334126   -2.267902850316   -1.402456878707
 C   -5.996342950864   -1.326494452504    0.566004052896
 H   -6.094215735926   -2.267894198647    1.120202338716
 C   -6.000982640425   -0.107123662155   -1.556714665710
 H   -6.044936006166   -0.108471850538   -2.648989846069
 C   -6.000982814562   -0.107113698962    1.274445334272
 H   -6.044936314668   -0.108454199650    2.366720518686
 C   -6.061129340121    1.110746890677   -0.848393020062
 H   -6.205458236582    2.046481293982   -1.401618103115
 C   -6.061129385686    1.110751891417    0.566115073641
 H   -6.205458318249    2.046490209017    1.119333526515
