26

 C    4.893313683579    1.297166833497    0.805018279412
 H    4.991193683579    2.238566833497    1.359218279412
 C    4.893313683579    1.297166833497   -0.609241720588
 H    4.991193683579    2.238566833497   -1.163441720588
 C    4.897953683579    0.077796833497    1.513468279412
 H    4.941903683579    0.079136833497    2.605748279412
 C    4.897953683579    0.077796833497   -1.317691720588
 H    4.941903683579    0.079136833497   -2.409971720588
 C    4.958093683579   -1.140073166503    0.805138279412
 H    5.102413683579   -2.075813166503    1.358358279412
 C    4.958093683579   -1.140073166503   -0.609361720588
 H    5.102413683579   -2.075813166503   -1.162581720588
NA    2.455763683579    2.320776833497    0.097888279412
NA    2.537663683579   -2.188023166503    0.097888279412
 C   -6.364191878843   -1.336278190854   -0.862687187741
 H   -6.462064487831   -2.277681741637   -1.416879041780
 C   -6.364192104569   -1.336273343825    0.551581889823
 H   -6.462064889631   -2.277673089969    1.105780175643
 C   -6.368831794130   -0.116902553476   -1.571136828784
 H   -6.412785159871   -0.118250741859   -2.663412009142
 C   -6.368831968267   -0.116892590284    1.260023171199
 H   -6.412785468373   -0.118233090971    2.352298355613
 C   -6.428978493826    1.100967999356   -0.862815183136
 H   -6.573307390287    2.036702402660   -1.416040266189
 C   -6.428978539391    1.100973000096    0.551692910567
 H   -6.573307471954    2.036711317695    1.104911363442
