26

 C    4.931893485988    1.298192437855    0.806530867374
 H    5.029773485988    2.239592437855    1.360730867374
 C    4.931893485988    1.298192437855   -0.607729132626
 H    5.029773485988    2.239592437855   -1.161929132626
 C    4.936533485988    0.078822437855    1.514980867374
 H    4.980483485988    0.080162437855    2.607260867374
 C    4.936533485988    0.078822437855   -1.316179132626
 H    4.980483485988    0.080162437855   -2.408459132626
 C    4.996673485988   -1.139047562145    0.806650867374
 H    5.140993485988   -2.074787562145    1.359870867374
 C    4.996673485988   -1.139047562145   -0.607849132626
 H    5.140993485988   -2.074787562145   -1.161069132626
NA    2.494343485988    2.321802437855    0.099400867374
NA    2.576243485988   -2.186997562145    0.099400867374
 C   -6.425500071127   -1.337908006075   -0.865090881587
 H   -6.523372680115   -2.279311556857   -1.419282735626
 C   -6.425500296854   -1.337903159046    0.549178195977
 H   -6.523373081915   -2.279302905189    1.103376481798
 C   -6.430139986414   -0.118532368696   -1.573540522629
 H   -6.474093352155   -0.119880557080   -2.665815702988
 C   -6.430140160551   -0.118522405504    1.257619477353
 H   -6.474093660657   -0.119862906191    2.349894661767
 C   -6.490286686111    1.099338184136   -0.865218876981
 H   -6.634615582571    2.035072587440   -1.418443960034
 C   -6.490286731675    1.099343184876    0.549289216722
 H   -6.634615664238    2.035081502475    1.102507669597
