26

 C    5.009053090804    1.300243646570    0.809556043298
 H    5.106933090804    2.241643646570    1.363756043298
 C    5.009053090804    1.300243646570   -0.604703956702
 H    5.106933090804    2.241643646570   -1.158903956702
 C    5.013693090804    0.080873646570    1.518006043298
 H    5.057643090804    0.082213646570    2.610286043298
 C    5.013693090804    0.080873646570   -1.313153956702
 H    5.057643090804    0.082213646570   -2.405433956702
 C    5.073833090804   -1.136996353430    0.809676043298
 H    5.218153090804   -2.072736353430    1.362896043298
 C    5.073833090804   -1.136996353430   -0.604823956702
 H    5.218153090804   -2.072736353430   -1.158043956702
NA    2.571503090804    2.323853646570    0.102426043298
NA    2.653403090804   -2.184946353430    0.102426043298
 C   -6.548116455696   -1.341167636515   -0.869898269278
 H   -6.645989064683   -2.282571187298   -1.424090123317
 C   -6.548116681422   -1.341162789486    0.544370808286
 H   -6.645989466483   -2.282562535629    1.098569094106
 C   -6.552756370982   -0.121791999137   -1.578347910320
 H   -6.596709736723   -0.123140187520   -2.670623090679
 C   -6.552756545119   -0.121782035944    1.252812089662
 H   -6.596710045226   -0.123122536632    2.345087274076
 C   -6.612903070679    1.096078553695   -0.870026264672
 H   -6.757231967139    2.031812956999   -1.423251347725
 C   -6.612903116243    1.096083554435    0.544481829031
 H   -6.757232048807    2.031821872035    1.097700281905
