26

 C    5.086212695621    1.302294855285    0.812581219221
 H    5.184092695621    2.243694855285    1.366781219221
 C    5.086212695621    1.302294855285   -0.601678780779
 H    5.184092695621    2.243694855285   -1.155878780779
 C    5.090852695621    0.082924855285    1.521031219221
 H    5.134802695621    0.084264855285    2.613311219221
 C    5.090852695621    0.082924855285   -1.310128780779
 H    5.134802695621    0.084264855285   -2.402408780779
 C    5.150992695621   -1.134945144715    0.812701219221
 H    5.295312695621   -2.070685144715    1.365921219221
 C    5.150992695621   -1.134945144715   -0.601798780779
 H    5.295312695621   -2.070685144715   -1.155018780779
NA    2.648662695621    2.325904855285    0.105451219221
NA    2.730562695621   -2.182895144715    0.105451219221
 C   -6.670732840264   -1.344427266956   -0.874705656969
 H   -6.768605449251   -2.285830817738   -1.428897511008
 C   -6.670733065990   -1.344422419927    0.539563420595
 H   -6.768605851052   -2.285822166070    1.093761706415
 C   -6.675372755551   -0.125051629577   -1.583155298011
 H   -6.719326121292   -0.126399817961   -2.675430478370
 C   -6.675372929688   -0.125041666385    1.248004701971
 H   -6.719326429794   -0.126382167072    2.340279886385
 C   -6.735519455247    1.092818923255   -0.874833652363
 H   -6.879848351708    2.028553326559   -1.428058735416
 C   -6.735519500811    1.092823923995    0.539674441340
 H   -6.879848433375    2.028562241594    1.092892894214
