26

 C    5.124792498029    1.303320459643    0.814093807183
 H    5.222672498029    2.244720459643    1.368293807183
 C    5.124792498029    1.303320459643   -0.600166192817
 H    5.222672498029    2.244720459643   -1.154366192817
 C    5.129432498029    0.083950459643    1.522543807183
 H    5.173382498029    0.085290459643    2.614823807183
 C    5.129432498029    0.083950459643   -1.308616192817
 H    5.173382498029    0.085290459643   -2.400896192817
 C    5.189572498029   -1.133919540357    0.814213807183
 H    5.333892498029   -2.069659540357    1.367433807183
 C    5.189572498029   -1.133919540357   -0.600286192817
 H    5.333892498029   -2.069659540357   -1.153506192817
NA    2.687242498029    2.326930459643    0.106963807183
NA    2.769142498029   -2.181869540357    0.106963807183
 C   -6.732041032548   -1.346057082176   -0.877109350815
 H   -6.829913641536   -2.287460632959   -1.431301204854
 C   -6.732041258274   -1.346052235147    0.537159726750
 H   -6.829914043336   -2.287451981290    1.091358012570
 C   -6.736680947835   -0.126681444798   -1.585558991857
 H   -6.780634313576   -0.128029633181   -2.677834172216
 C   -6.736681121972   -0.126671481605    1.245601008126
 H   -6.780634622078   -0.128011982293    2.337876192540
 C   -6.796827647531    1.091189108034   -0.877237346209
 H   -6.941156543992    2.026923511339   -1.430462429262
 C   -6.796827693096    1.091194108774    0.537270747494
 H   -6.941156625659    2.026932426374    1.090489200369
