26

 C    5.163372300437    1.304346064000    0.815606395145
 H    5.261252300437    2.245746064000    1.369806395145
 C    5.163372300437    1.304346064000   -0.598653604855
 H    5.261252300437    2.245746064000   -1.152853604855
 C    5.168012300437    0.084976064000    1.524056395145
 H    5.211962300437    0.086316064000    2.616336395145
 C    5.168012300437    0.084976064000   -1.307103604855
 H    5.211962300437    0.086316064000   -2.399383604855
 C    5.228152300437   -1.132893936000    0.815726395145
 H    5.372472300437   -2.068633936000    1.368946395145
 C    5.228152300437   -1.132893936000   -0.598773604855
 H    5.372472300437   -2.068633936000   -1.151993604855
NA    2.725822300437    2.327956064000    0.108476395145
NA    2.807722300437   -2.180843936000    0.108476395145
 C   -6.793349224832   -1.347686897396   -0.879513044660
 H   -6.891221833820   -2.289090448179   -1.433704898699
 C   -6.793349450559   -1.347682050367    0.534756032904
 H   -6.891222235620   -2.289081796510    1.088954318724
 C   -6.797989140119   -0.128311260018   -1.587962685702
 H   -6.841942505860   -0.129659448401   -2.680237866061
 C   -6.797989314256   -0.128301296825    1.243197314280
 H   -6.841942814362   -0.129641797513    2.335472498694
 C   -6.858135839816    1.089559292814   -0.879641040054
 H   -7.002464736276    2.025293696118   -1.432866123107
 C   -6.858135885380    1.089564293554    0.534867053649
 H   -7.002464817943    2.025302611154    1.088085506523
