28

 C   -1.284797042081   -4.619279877499    0.000000000000
 H   -1.300217042081   -5.710769877499    0.000000000000
 C   -0.056037042081   -3.938719877499    0.000000000000
 H    0.884152957919   -4.493929877499    0.000000000000
 C   -2.495667042081   -3.901349877499    0.000000000000
 H   -3.450027042081   -4.432039877499    0.000000000000
 C   -0.030647042081   -2.529059877499    0.000000000000
 H    0.930272957919   -2.003929877499    0.000000000000
 C   -2.493157042081   -2.494489877499    0.000000000000
 H   -3.432857042081   -1.933629877499    0.000000000000
 C   -1.255757042081   -1.848589877499    0.000000000000
 O   -1.187147042081   -0.394279877499    0.000000000000
 H   -2.106337042081   -0.066129877499    0.000000000000
LI    0.124622957919    0.041390122501    1.469840000000
LI    0.124622957919    0.041390122501   -1.469840000000
 O    1.168552776227    0.388104031145    0.000000000000
 H    2.087753635768    0.059950377775    0.000000000000
 C    1.237170389525    1.842416166845    0.000000000000
 C    0.012051866381    2.522882618883    0.000000000000
 H   -0.948870286184    1.997751093252    0.000000000000
 C    0.037440627215    3.932544004792    0.000000000000
 H   -0.902741850315    4.487754634504    0.000000000000
 C    1.266202022421    4.613101837201    0.000000000000
 H    1.281617757599    5.704592980137    0.000000000000
 C    2.477068818010    3.895173642087    0.000000000000
 H    3.431429088692    4.425870008990    0.000000000000
 C    2.474557001482    2.488315884395    0.000000000000
 H    3.414258730085    1.927457093112    0.000000000000
