28

 C   -1.373111074920   -4.648611067180    0.000000000000
 H   -1.388531074920   -5.740101067180    0.000000000000
 C   -0.144351074920   -3.968051067180    0.000000000000
 H    0.795838925080   -4.523261067180    0.000000000000
 C   -2.583981074920   -3.930681067180    0.000000000000
 H   -3.538341074920   -4.461371067180    0.000000000000
 C   -0.118961074920   -2.558391067180    0.000000000000
 H    0.841958925080   -2.033261067180    0.000000000000
 C   -2.581471074920   -2.523821067180    0.000000000000
 H   -3.521171074920   -1.962961067180    0.000000000000
 C   -1.344071074920   -1.877921067180    0.000000000000
 O   -1.275461074920   -0.423611067180    0.000000000000
 H   -2.194651074920   -0.095461067180    0.000000000000
LI    0.036308925080    0.012058932820    1.469840000000
LI    0.036308925080    0.012058932820   -1.469840000000
 O    1.270044164899    0.421811733945    0.000000000000
 H    2.189245024439    0.093658080576    0.000000000000
 C    1.338661778197    1.876123869646    0.000000000000
 C    0.113543255052    2.556590321683    0.000000000000
 H   -0.847378897512    2.031458796053    0.000000000000
 C    0.138932015887    3.966251707592    0.000000000000
 H   -0.801250461643    4.521462337304    0.000000000000
 C    1.367693411092    4.646809540001    0.000000000000
 H    1.383109146270    5.738300682938    0.000000000000
 C    2.578560206681    3.928881344887    0.000000000000
 H    3.532920477364    4.459577711790    0.000000000000
 C    2.576048390154    2.522023587196    0.000000000000
 H    3.515750118757    1.961164795912    0.000000000000
