28

 C   -1.417268091339   -4.663276662020    0.000000000000
 H   -1.432688091339   -5.754766662020    0.000000000000
 C   -0.188508091339   -3.982716662020    0.000000000000
 H    0.751681908661   -4.537926662020    0.000000000000
 C   -2.628138091339   -3.945346662020    0.000000000000
 H   -3.582498091339   -4.476036662020    0.000000000000
 C   -0.163118091339   -2.573056662020    0.000000000000
 H    0.797801908661   -2.047926662020    0.000000000000
 C   -2.625628091339   -2.538486662020    0.000000000000
 H   -3.565328091339   -1.977626662020    0.000000000000
 C   -1.388228091339   -1.892586662020    0.000000000000
 O   -1.319618091339   -0.438276662020    0.000000000000
 H   -2.238808091339   -0.110126662020    0.000000000000
LI   -0.007848091339   -0.002606662020    1.469840000000
LI   -0.007848091339   -0.002606662020   -1.469840000000
 O    1.320789859235    0.438665585346    0.000000000000
 H    2.239990718775    0.110511931976    0.000000000000
 C    1.389407472533    1.892977721046    0.000000000000
 C    0.164288949388    2.573444173083    0.000000000000
 H   -0.796633203176    2.048312647453    0.000000000000
 C    0.189677710223    3.983105558993    0.000000000000
 H   -0.750504767308    4.538316188705    0.000000000000
 C    1.418439105428    4.663663391401    0.000000000000
 H    1.433854840606    5.755154534338    0.000000000000
 C    2.629305901017    3.945735196288    0.000000000000
 H    3.583666171699    4.476431563190    0.000000000000
 C    2.626794084490    2.538877438596    0.000000000000
 H    3.566495813093    1.978018647312    0.000000000000
