28

 C   -1.461425107759   -4.677942256860    0.000000000000
 H   -1.476845107759   -5.769432256860    0.000000000000
 C   -0.232665107759   -3.997382256860    0.000000000000
 H    0.707524892241   -4.552592256860    0.000000000000
 C   -2.672295107759   -3.960012256860    0.000000000000
 H   -3.626655107759   -4.490702256860    0.000000000000
 C   -0.207275107759   -2.587722256860    0.000000000000
 H    0.753644892241   -2.062592256860    0.000000000000
 C   -2.669785107759   -2.553152256860    0.000000000000
 H   -3.609485107759   -1.992292256860    0.000000000000
 C   -1.432385107759   -1.907252256860    0.000000000000
 O   -1.363775107759   -0.452942256860    0.000000000000
 H   -2.282965107759   -0.124792256860    0.000000000000
LI   -0.052005107759   -0.017272256860    1.469840000000
LI   -0.052005107759   -0.017272256860   -1.469840000000
 O    1.371535553570    0.455519436746    0.000000000000
 H    2.290736413111    0.127365783376    0.000000000000
 C    1.440153166868    1.909831572446    0.000000000000
 C    0.215034643724    2.590298024484    0.000000000000
 H   -0.745887508841    2.065166498853    0.000000000000
 C    0.240423404558    3.999959410393    0.000000000000
 H   -0.699759072972    4.555170040105    0.000000000000
 C    1.469184799764    4.680517242802    0.000000000000
 H    1.484600534942    5.772008385738    0.000000000000
 C    2.680051595353    3.962589047688    0.000000000000
 H    3.634411866035    4.493285414590    0.000000000000
 C    2.677539778825    2.555731289996    0.000000000000
 H    3.617241507429    1.994872498713    0.000000000000
