28

 C   -1.593896157017   -4.721939041381    0.000000000000
 H   -1.609316157017   -5.813429041381    0.000000000000
 C   -0.365136157017   -4.041379041381    0.000000000000
 H    0.575053842983   -4.596589041381    0.000000000000
 C   -2.804766157017   -4.004009041381    0.000000000000
 H   -3.759126157017   -4.534699041381    0.000000000000
 C   -0.339746157017   -2.631719041381    0.000000000000
 H    0.621173842983   -2.106589041381    0.000000000000
 C   -2.802256157017   -2.597149041381    0.000000000000
 H   -3.741956157017   -2.036289041381    0.000000000000
 C   -1.564856157017   -1.951249041381    0.000000000000
 O   -1.496246157017   -0.496939041381    0.000000000000
 H   -2.415436157017   -0.168789041381    0.000000000000
LI   -0.184476157017   -0.061269041381    1.469840000000
LI   -0.184476157017   -0.061269041381   -1.469840000000
 O    1.523772636578    0.506080990946    0.000000000000
 H    2.442973496118    0.177927337577    0.000000000000
 C    1.592390249876    1.960393126647    0.000000000000
 C    0.367271726731    2.640859578684    0.000000000000
 H   -0.593650425833    2.115728053054    0.000000000000
 C    0.392660487566    4.050520964593    0.000000000000
 H   -0.547521989965    4.605731594306    0.000000000000
 C    1.621421882771    4.731078797002    0.000000000000
 H    1.636837617949    5.822569939939    0.000000000000
 C    2.832288678360    4.013150601889    0.000000000000
 H    3.786648949042    4.543846968791    0.000000000000
 C    2.829776861833    2.606292844197    0.000000000000
 H    3.769478590436    2.045434052913    0.000000000000
