28

 C   -1.726367206276   -4.765935825901    0.000000000000
 H   -1.741787206276   -5.857425825901    0.000000000000
 C   -0.497607206276   -4.085375825901    0.000000000000
 H    0.442582793724   -4.640585825901    0.000000000000
 C   -2.937237206276   -4.048005825901    0.000000000000
 H   -3.891597206276   -4.578695825901    0.000000000000
 C   -0.472217206276   -2.675715825901    0.000000000000
 H    0.488702793724   -2.150585825901    0.000000000000
 C   -2.934727206276   -2.641145825901    0.000000000000
 H   -3.874427206276   -2.080285825901    0.000000000000
 C   -1.697327206276   -1.995245825901    0.000000000000
 O   -1.628717206276   -0.540935825901    0.000000000000
 H   -2.547907206276   -0.212785825901    0.000000000000
LI   -0.316947206276   -0.105265825901    1.469840000000
LI   -0.316947206276   -0.105265825901   -1.469840000000
 O    1.676009719585    0.556642545147    0.000000000000
 H    2.595210579126    0.228488891777    0.000000000000
 C    1.744627332883    2.010954680847    0.000000000000
 C    0.519508809739    2.691421132885    0.000000000000
 H   -0.441413342826    2.166289607255    0.000000000000
 C    0.544897570573    4.101082518794    0.000000000000
 H   -0.395284906957    4.656293148506    0.000000000000
 C    1.773658965778    4.781640351203    0.000000000000
 H    1.789074700957    5.873131494139    0.000000000000
 C    2.984525761368    4.063712156089    0.000000000000
 H    3.938886032050    4.594408522992    0.000000000000
 C    2.982013944840    2.656854398397    0.000000000000
 H    3.921715673443    2.095995607114    0.000000000000
