28

 C   -1.858838255534   -4.809932610422    0.000000000000
 H   -1.874258255534   -5.901422610422    0.000000000000
 C   -0.630078255534   -4.129372610422    0.000000000000
 H    0.310111744466   -4.684582610422    0.000000000000
 C   -3.069708255534   -4.092002610422    0.000000000000
 H   -4.024068255534   -4.622692610422    0.000000000000
 C   -0.604688255534   -2.719712610422    0.000000000000
 H    0.356231744466   -2.194582610422    0.000000000000
 C   -3.067198255534   -2.685142610422    0.000000000000
 H   -4.006898255534   -2.124282610422    0.000000000000
 C   -1.829798255534   -2.039242610422    0.000000000000
 O   -1.761188255534   -0.584932610422    0.000000000000
 H   -2.680378255534   -0.256782610422    0.000000000000
LI   -0.449418255534   -0.149262610422    1.469840000000
LI   -0.449418255534   -0.149262610422   -1.469840000000
 O    1.828246802592    0.607204099348    0.000000000000
 H    2.747447662133    0.279050445978    0.000000000000
 C    1.896864415890    2.061516235048    0.000000000000
 C    0.671745892746    2.741982687086    0.000000000000
 H   -0.289176259819    2.216851161455    0.000000000000
 C    0.697134653580    4.151644072995    0.000000000000
 H   -0.243047823950    4.706854702707    0.000000000000
 C    1.925896048786    4.832201905404    0.000000000000
 H    1.941311783964    5.923693048340    0.000000000000
 C    3.136762844375    4.114273710290    0.000000000000
 H    4.091123115057    4.644970077192    0.000000000000
 C    3.134251027847    2.707415952598    0.000000000000
 H    4.073952756451    2.146557161315    0.000000000000
