28

 C   -2.079623337632   -4.883260584622    0.000000000000
 H   -2.095043337632   -5.974750584622    0.000000000000
 C   -0.850863337632   -4.202700584622    0.000000000000
 H    0.089326662368   -4.757910584622    0.000000000000
 C   -3.290493337632   -4.165330584622    0.000000000000
 H   -4.244853337632   -4.696020584622    0.000000000000
 C   -0.825473337632   -2.793040584622    0.000000000000
 H    0.135446662368   -2.267910584622    0.000000000000
 C   -3.287983337632   -2.758470584622    0.000000000000
 H   -4.227683337632   -2.197610584622    0.000000000000
 C   -2.050583337632   -2.112570584622    0.000000000000
 O   -1.981973337632   -0.658260584622    0.000000000000
 H   -2.901163337632   -0.330110584622    0.000000000000
LI   -0.670203337632   -0.222590584622    1.469840000000
LI   -0.670203337632   -0.222590584622   -1.469840000000
 O    2.081975274271    0.691473356349    0.000000000000
 H    3.001176133812    0.363319702979    0.000000000000
 C    2.150592887569    2.145785492049    0.000000000000
 C    0.925474364425    2.826251944087    0.000000000000
 H   -0.035447788140    2.301120418456    0.000000000000
 C    0.950863125259    4.235913329996    0.000000000000
 H    0.010680647729    4.791123959708    0.000000000000
 C    2.179624520465    4.916471162405    0.000000000000
 H    2.195040255643    6.007962305341    0.000000000000
 C    3.390491316054    4.198542967291    0.000000000000
 H    4.344851586736    4.729239334194    0.000000000000
 C    3.387979499526    2.791685209599    0.000000000000
 H    4.327681228129    2.230826418316    0.000000000000
