28

 C   -2.256251403310   -4.941922963983    0.000000000000
 H   -2.271671403310   -6.033412963983    0.000000000000
 C   -1.027491403310   -4.261362963983    0.000000000000
 H   -0.087301403310   -4.816572963983    0.000000000000
 C   -3.467121403310   -4.223992963983    0.000000000000
 H   -4.421481403310   -4.754682963983    0.000000000000
 C   -1.002101403310   -2.851702963983    0.000000000000
 H   -0.041181403310   -2.326572963983    0.000000000000
 C   -3.464611403310   -2.817132963983    0.000000000000
 H   -4.404311403310   -2.256272963983    0.000000000000
 C   -2.227211403310   -2.171232963983    0.000000000000
 O   -2.158601403310   -0.716922963983    0.000000000000
 H   -3.077791403310   -0.388772963983    0.000000000000
LI   -0.846831403310   -0.281252963983    1.469840000000
LI   -0.846831403310   -0.281252963983   -1.469840000000
 O    2.284958051614    0.758888761950    0.000000000000
 H    3.204158911155    0.430735108580    0.000000000000
 C    2.353575664912    2.213200897650    0.000000000000
 C    1.128457141768    2.893667349688    0.000000000000
 H    0.167534989203    2.368535824057    0.000000000000
 C    1.153845902602    4.303328735597    0.000000000000
 H    0.213663425072    4.858539365309    0.000000000000
 C    2.382607297808    4.983886568006    0.000000000000
 H    2.398023032986    6.075377710942    0.000000000000
 C    3.593474093397    4.265958372892    0.000000000000
 H    4.547834364079    4.796654739794    0.000000000000
 C    3.590962276869    2.859100615200    0.000000000000
 H    4.530664005473    2.298241823917    0.000000000000
