28

 C   -2.344565436149   -4.971254153663    0.000000000000
 H   -2.359985436149   -6.062744153663    0.000000000000
 C   -1.115805436149   -4.290694153663    0.000000000000
 H   -0.175615436149   -4.845904153663    0.000000000000
 C   -3.555435436149   -4.253324153663    0.000000000000
 H   -4.509795436149   -4.784014153663    0.000000000000
 C   -1.090415436149   -2.881034153663    0.000000000000
 H   -0.129495436149   -2.355904153663    0.000000000000
 C   -3.552925436149   -2.846464153663    0.000000000000
 H   -4.492625436149   -2.285604153663    0.000000000000
 C   -2.315525436149   -2.200564153663    0.000000000000
 O   -2.246915436149   -0.746254153663    0.000000000000
 H   -3.166105436149   -0.418104153663    0.000000000000
LI   -0.935145436149   -0.310584153663    1.469840000000
LI   -0.935145436149   -0.310584153663   -1.469840000000
 O    2.386449440286    0.792596464750    0.000000000000
 H    3.305650299827    0.464442811380    0.000000000000
 C    2.455067053584    2.246908600451    0.000000000000
 C    1.229948530439    2.927375052488    0.000000000000
 H    0.269026377875    2.402243526858    0.000000000000
 C    1.255337291274    4.337036438397    0.000000000000
 H    0.315154813744    4.892247068109    0.000000000000
 C    2.484098686479    5.017594270806    0.000000000000
 H    2.499514421657    6.109085413743    0.000000000000
 C    3.694965482069    4.299666075692    0.000000000000
 H    4.649325752751    4.830362442595    0.000000000000
 C    3.692453665541    2.892808318000    0.000000000000
 H    4.632155394144    2.331949526717    0.000000000000
