28

 C   -2.477036485407   -5.015250938184    0.000000000000
 H   -2.492456485407   -6.106740938184    0.000000000000
 C   -1.248276485407   -4.334690938184    0.000000000000
 H   -0.308086485407   -4.889900938184    0.000000000000
 C   -3.687906485407   -4.297320938184    0.000000000000
 H   -4.642266485407   -4.828010938184    0.000000000000
 C   -1.222886485407   -2.925030938184    0.000000000000
 H   -0.261966485407   -2.399900938184    0.000000000000
 C   -3.685396485407   -2.890460938184    0.000000000000
 H   -4.625096485407   -2.329600938184    0.000000000000
 C   -2.447996485407   -2.244560938184    0.000000000000
 O   -2.379386485407   -0.790250938184    0.000000000000
 H   -3.298576485407   -0.462100938184    0.000000000000
LI   -1.067616485407   -0.354580938184    1.469840000000
LI   -1.067616485407   -0.354580938184   -1.469840000000
 O    2.538686523293    0.843158018951    0.000000000000
 H    3.457887382834    0.515004365581    0.000000000000
 C    2.607304136591    2.297470154651    0.000000000000
 C    1.382185613447    2.977936606689    0.000000000000
 H    0.421263460882    2.452805081058    0.000000000000
 C    1.407574374281    4.387597992598    0.000000000000
 H    0.467391896751    4.942808622310    0.000000000000
 C    2.636335769486    5.068155825007    0.000000000000
 H    2.651751504665    6.159646967943    0.000000000000
 C    3.847202565076    4.350227629893    0.000000000000
 H    4.801562835758    4.880923996796    0.000000000000
 C    3.844690748548    2.943369872201    0.000000000000
 H    4.784392477151    2.382511080918    0.000000000000
