28

 C   -2.565350518246   -5.044582127864    0.000000000000
 H   -2.580770518246   -6.136072127864    0.000000000000
 C   -1.336590518246   -4.364022127864    0.000000000000
 H   -0.396400518246   -4.919232127864    0.000000000000
 C   -3.776220518246   -4.326652127864    0.000000000000
 H   -4.730580518246   -4.857342127864    0.000000000000
 C   -1.311200518246   -2.954362127864    0.000000000000
 H   -0.350280518246   -2.429232127864    0.000000000000
 C   -3.773710518246   -2.919792127864    0.000000000000
 H   -4.713410518246   -2.358932127864    0.000000000000
 C   -2.536310518246   -2.273892127864    0.000000000000
 O   -2.467700518246   -0.819582127864    0.000000000000
 H   -3.386890518246   -0.491432127864    0.000000000000
LI   -1.155930518246   -0.383912127864    1.469840000000
LI   -1.155930518246   -0.383912127864   -1.469840000000
 O    2.640177911965    0.876865721751    0.000000000000
 H    3.559378771505    0.548712068382    0.000000000000
 C    2.708795525263    2.331177857452    0.000000000000
 C    1.483677002118    3.011644309489    0.000000000000
 H    0.522754849554    2.486512783859    0.000000000000
 C    1.509065762953    4.421305695398    0.000000000000
 H    0.568883285423    4.976516325110    0.000000000000
 C    2.737827158158    5.101863527807    0.000000000000
 H    2.753242893336    6.193354670744    0.000000000000
 C    3.948693953747    4.383935332693    0.000000000000
 H    4.903054224430    4.914631699596    0.000000000000
 C    3.946182137220    2.977077575002    0.000000000000
 H    4.885883865823    2.416218783718    0.000000000000
