28

 C   -2.653664551085   -5.073913317544    0.000000000000
 H   -2.669084551085   -6.165403317544    0.000000000000
 C   -1.424904551085   -4.393353317544    0.000000000000
 H   -0.484714551085   -4.948563317544    0.000000000000
 C   -3.864534551085   -4.355983317544    0.000000000000
 H   -4.818894551085   -4.886673317544    0.000000000000
 C   -1.399514551085   -2.983693317544    0.000000000000
 H   -0.438594551085   -2.458563317544    0.000000000000
 C   -3.862024551085   -2.949123317544    0.000000000000
 H   -4.801724551085   -2.388263317544    0.000000000000
 C   -2.624624551085   -2.303223317544    0.000000000000
 O   -2.556014551085   -0.848913317544    0.000000000000
 H   -3.475204551085   -0.520763317544    0.000000000000
LI   -1.244244551085   -0.413243317544    1.469840000000
LI   -1.244244551085   -0.413243317544   -1.469840000000
 O    2.741669300636    0.910573424552    0.000000000000
 H    3.660870160177    0.582419771182    0.000000000000
 C    2.810286913934    2.364885560252    0.000000000000
 C    1.585168390790    3.045352012290    0.000000000000
 H    0.624246238225    2.520220486659    0.000000000000
 C    1.610557151624    4.455013398199    0.000000000000
 H    0.670374674094    5.010224027911    0.000000000000
 C    2.839318546830    5.135571230608    0.000000000000
 H    2.854734282008    6.227062373544    0.000000000000
 C    4.050185342419    4.417643035494    0.000000000000
 H    5.004545613101    4.948339402396    0.000000000000
 C    4.047673525891    3.010785277802    0.000000000000
 H    4.987375254495    2.449926486519    0.000000000000
