28

 C   -2.786135600344   -5.117910102065    0.000000000000
 H   -2.801555600344   -6.209400102065    0.000000000000
 C   -1.557375600344   -4.437350102065    0.000000000000
 H   -0.617185600344   -4.992560102065    0.000000000000
 C   -3.997005600344   -4.399980102065    0.000000000000
 H   -4.951365600344   -4.930670102065    0.000000000000
 C   -1.531985600344   -3.027690102065    0.000000000000
 H   -0.571065600344   -2.502560102065    0.000000000000
 C   -3.994495600344   -2.993120102065    0.000000000000
 H   -4.934195600344   -2.432260102065    0.000000000000
 C   -2.757095600344   -2.347220102065    0.000000000000
 O   -2.688485600344   -0.892910102065    0.000000000000
 H   -3.607675600344   -0.564760102065    0.000000000000
LI   -1.376715600344   -0.457240102065    1.469840000000
LI   -1.376715600344   -0.457240102065   -1.469840000000
 O    2.893906383644    0.961134978752    0.000000000000
 H    3.813107243184    0.632981325383    0.000000000000
 C    2.962523996942    2.415447114453    0.000000000000
 C    1.737405473797    3.095913566490    0.000000000000
 H    0.776483321233    2.570782040860    0.000000000000
 C    1.762794234632    4.505574952399    0.000000000000
 H    0.822611757101    5.060785582111    0.000000000000
 C    2.991555629837    5.186132784808    0.000000000000
 H    3.006971365015    6.277623927745    0.000000000000
 C    4.202422425426    4.468204589695    0.000000000000
 H    5.156782696108    4.998900956597    0.000000000000
 C    4.199910608899    3.061346832003    0.000000000000
 H    5.139612337502    2.500488040719    0.000000000000
