28

 C   -2.918606649602   -5.161906886585    0.000000000000
 H   -2.934026649602   -6.253396886585    0.000000000000
 C   -1.689846649602   -4.481346886585    0.000000000000
 H   -0.749656649602   -5.036556886585    0.000000000000
 C   -4.129476649602   -4.443976886585    0.000000000000
 H   -5.083836649602   -4.974666886585    0.000000000000
 C   -1.664456649602   -3.071686886585    0.000000000000
 H   -0.703536649602   -2.546556886585    0.000000000000
 C   -4.126966649602   -3.037116886585    0.000000000000
 H   -5.066666649602   -2.476256886585    0.000000000000
 C   -2.889566649602   -2.391216886585    0.000000000000
 O   -2.820956649602   -0.936906886585    0.000000000000
 H   -3.740146649602   -0.608756886585    0.000000000000
LI   -1.509186649602   -0.501236886585    1.469840000000
LI   -1.509186649602   -0.501236886585   -1.469840000000
 O    3.046143466651    1.011696532953    0.000000000000
 H    3.965344326192    0.683542879583    0.000000000000
 C    3.114761079949    2.466008668653    0.000000000000
 C    1.889642556804    3.146475120691    0.000000000000
 H    0.928720404240    2.621343595061    0.000000000000
 C    1.915031317639    4.556136506600    0.000000000000
 H    0.974848840109    5.111347136312    0.000000000000
 C    3.143792712844    5.236694339009    0.000000000000
 H    3.159208448023    6.328185481945    0.000000000000
 C    4.354659508434    4.518766143895    0.000000000000
 H    5.309019779116    5.049462510798    0.000000000000
 C    4.352147691906    3.111908386203    0.000000000000
 H    5.291849420509    2.551049594920    0.000000000000
