28

 C   -3.183548748119   -5.249900455626    0.000000000000
 H   -3.198968748119   -6.341390455626    0.000000000000
 C   -1.954788748119   -4.569340455626    0.000000000000
 H   -1.014598748119   -5.124550455626    0.000000000000
 C   -4.394418748119   -4.531970455626    0.000000000000
 H   -5.348778748119   -5.062660455626    0.000000000000
 C   -1.929398748119   -3.159680455626    0.000000000000
 H   -0.968478748119   -2.634550455626    0.000000000000
 C   -4.391908748119   -3.125110455626    0.000000000000
 H   -5.331608748119   -2.564250455626    0.000000000000
 C   -3.154508748119   -2.479210455626    0.000000000000
 O   -3.085898748119   -1.024900455626    0.000000000000
 H   -4.005088748119   -0.696750455626    0.000000000000
LI   -1.774128748119   -0.589230455626    1.469840000000
LI   -1.774128748119   -0.589230455626   -1.469840000000
 O    3.350617632666    1.112819641354    0.000000000000
 H    4.269818492206    0.784665987985    0.000000000000
 C    3.419235245964    2.567131777055    0.000000000000
 C    2.194116722819    3.247598229092    0.000000000000
 H    1.233194570255    2.722466703462    0.000000000000
 C    2.219505483654    4.657259615001    0.000000000000
 H    1.279323006123    5.212470244713    0.000000000000
 C    3.448266878859    5.337817447410    0.000000000000
 H    3.463682614037    6.429308590347    0.000000000000
 C    4.659133674448    4.619889252297    0.000000000000
 H    5.613493945130    5.150585619199    0.000000000000
 C    4.656621857921    3.213031494605    0.000000000000
 H    5.596323586524    2.652172703321    0.000000000000
