28

 C   -3.316019797378   -5.293897240147    0.000000000000
 H   -3.331439797378   -6.385387240147    0.000000000000
 C   -2.087259797378   -4.613337240147    0.000000000000
 H   -1.147069797378   -5.168547240147    0.000000000000
 C   -4.526889797378   -4.575967240147    0.000000000000
 H   -5.481249797378   -5.106657240147    0.000000000000
 C   -2.061869797378   -3.203677240147    0.000000000000
 H   -1.100949797378   -2.678547240147    0.000000000000
 C   -4.524379797378   -3.169107240147    0.000000000000
 H   -5.464079797378   -2.608247240147    0.000000000000
 C   -3.286979797378   -2.523207240147    0.000000000000
 O   -3.218369797378   -1.068897240147    0.000000000000
 H   -4.137559797378   -0.740747240147    0.000000000000
LI   -1.906599797378   -0.633227240147    1.469840000000
LI   -1.906599797378   -0.633227240147   -1.469840000000
 O    3.502854715673    1.163381195555    0.000000000000
 H    4.422055575214    0.835227542185    0.000000000000
 C    3.571472328971    2.617693331255    0.000000000000
 C    2.346353805826    3.298159783293    0.000000000000
 H    1.385431653262    2.773028257663    0.000000000000
 C    2.371742566661    4.707821169202    0.000000000000
 H    1.431560089131    5.263031798914    0.000000000000
 C    3.600503961866    5.388379001611    0.000000000000
 H    3.615919697045    6.479870144547    0.000000000000
 C    4.811370757456    4.670450806497    0.000000000000
 H    5.765731028138    5.201147173400    0.000000000000
 C    4.808858940928    3.263593048805    0.000000000000
 H    5.748560669531    2.702734257522    0.000000000000
