28

 C   -3.360176813797   -5.308562834987    0.000000000000
 H   -3.375596813797   -6.400052834987    0.000000000000
 C   -2.131416813797   -4.628002834987    0.000000000000
 H   -1.191226813797   -5.183212834987    0.000000000000
 C   -4.571046813797   -4.590632834987    0.000000000000
 H   -5.525406813797   -5.121322834987    0.000000000000
 C   -2.106026813797   -3.218342834987    0.000000000000
 H   -1.145106813797   -2.693212834987    0.000000000000
 C   -4.568536813797   -3.183772834987    0.000000000000
 H   -5.508236813797   -2.622912834987    0.000000000000
 C   -3.331136813797   -2.537872834987    0.000000000000
 O   -3.262526813797   -1.083562834987    0.000000000000
 H   -4.181716813797   -0.755412834987    0.000000000000
LI   -1.950756813797   -0.647892834987    1.469840000000
LI   -1.950756813797   -0.647892834987   -1.469840000000
 O    3.553600410009    1.180235046955    0.000000000000
 H    4.472801269549    0.852081393586    0.000000000000
 C    3.622218023307    2.634547182656    0.000000000000
 C    2.397099500162    3.315013634693    0.000000000000
 H    1.436177347598    2.789882109063    0.000000000000
 C    2.422488260997    4.724675020602    0.000000000000
 H    1.482305783466    5.279885650314    0.000000000000
 C    3.651249656202    5.405232853011    0.000000000000
 H    3.666665391380    6.496723995948    0.000000000000
 C    4.862116451791    4.687304657897    0.000000000000
 H    5.816476722473    5.218001024800    0.000000000000
 C    4.859604635264    3.280446900206    0.000000000000
 H    5.799306363867    2.719588108922    0.000000000000
