28

 C   -3.625118912314   -5.396556404028    0.000000000000
 H   -3.640538912314   -6.488046404028    0.000000000000
 C   -2.396358912314   -4.715996404028    0.000000000000
 H   -1.456168912314   -5.271206404028    0.000000000000
 C   -4.835988912314   -4.678626404028    0.000000000000
 H   -5.790348912314   -5.209316404028    0.000000000000
 C   -2.370968912314   -3.306336404028    0.000000000000
 H   -1.410048912314   -2.781206404028    0.000000000000
 C   -4.833478912314   -3.271766404028    0.000000000000
 H   -5.773178912314   -2.710906404028    0.000000000000
 C   -3.596078912314   -2.625866404028    0.000000000000
 O   -3.527468912314   -1.171556404028    0.000000000000
 H   -4.446658912314   -0.843406404028    0.000000000000
LI   -2.215698912314   -0.735886404028    1.469840000000
LI   -2.215698912314   -0.735886404028   -1.469840000000
 O    3.858074576023    1.281358155357    0.000000000000
 H    4.777275435564    0.953204501987    0.000000000000
 C    3.926692189321    2.735670291057    0.000000000000
 C    2.701573666177    3.416136743094    0.000000000000
 H    1.740651513612    2.891005217464    0.000000000000
 C    2.726962427011    4.825798129004    0.000000000000
 H    1.786779949481    5.381008758716    0.000000000000
 C    3.955723822217    5.506355961412    0.000000000000
 H    3.971139557395    6.597847104349    0.000000000000
 C    5.166590617806    4.788427766299    0.000000000000
 H    6.120950888488    5.319124133201    0.000000000000
 C    5.164078801278    3.381570008607    0.000000000000
 H    6.103780529882    2.820711217323    0.000000000000
