28

 C   -3.890061010831   -5.484549973069    0.000000000000
 H   -3.905481010831   -6.576039973069    0.000000000000
 C   -2.661301010831   -4.803989973069    0.000000000000
 H   -1.721111010831   -5.359199973069    0.000000000000
 C   -5.100931010831   -4.766619973069    0.000000000000
 H   -6.055291010831   -5.297309973069    0.000000000000
 C   -2.635911010831   -3.394329973069    0.000000000000
 H   -1.674991010831   -2.869199973069    0.000000000000
 C   -5.098421010831   -3.359759973069    0.000000000000
 H   -6.038121010831   -2.798899973069    0.000000000000
 C   -3.861021010831   -2.713859973069    0.000000000000
 O   -3.792411010831   -1.259549973069    0.000000000000
 H   -4.711601010831   -0.931399973069    0.000000000000
LI   -2.480641010831   -0.823879973069    1.469840000000
LI   -2.480641010831   -0.823879973069   -1.469840000000
 O    4.162548742038    1.382481263758    0.000000000000
 H    5.081749601579    1.054327610388    0.000000000000
 C    4.231166355336    2.836793399458    0.000000000000
 C    3.006047832192    3.517259851496    0.000000000000
 H    2.045125679627    2.992128325865    0.000000000000
 C    3.031436593026    4.926921237405    0.000000000000
 H    2.091254115496    5.482131867117    0.000000000000
 C    4.260197988231    5.607479069814    0.000000000000
 H    4.275613723410    6.698970212750    0.000000000000
 C    5.471064783821    4.889550874700    0.000000000000
 H    6.425425054503    5.420247241603    0.000000000000
 C    5.468552967293    3.482693117008    0.000000000000
 H    6.408254695896    2.921834325725    0.000000000000
