28

 C   -4.110846092929   -5.557877947270    0.000000000000
 H   -4.126266092929   -6.649367947270    0.000000000000
 C   -2.882086092929   -4.877317947270    0.000000000000
 H   -1.941896092929   -5.432527947270    0.000000000000
 C   -5.321716092929   -4.839947947270    0.000000000000
 H   -6.276076092929   -5.370637947270    0.000000000000
 C   -2.856696092929   -3.467657947270    0.000000000000
 H   -1.895776092929   -2.942527947270    0.000000000000
 C   -5.319206092929   -3.433087947270    0.000000000000
 H   -6.258906092929   -2.872227947270    0.000000000000
 C   -4.081806092929   -2.787187947270    0.000000000000
 O   -4.013196092929   -1.332877947270    0.000000000000
 H   -4.932386092929   -1.004727947270    0.000000000000
LI   -2.701426092929   -0.897207947270    1.469840000000
LI   -2.701426092929   -0.897207947270   -1.469840000000
 O    4.416277213717    1.466750520759    0.000000000000
 H    5.335478073258    1.138596867389    0.000000000000
 C    4.484894827015    2.921062656459    0.000000000000
 C    3.259776303870    3.601529108497    0.000000000000
 H    2.298854151306    3.076397582867    0.000000000000
 C    3.285165064705    5.011190494406    0.000000000000
 H    2.344982587175    5.566401124118    0.000000000000
 C    4.513926459910    5.691748326815    0.000000000000
 H    4.529342195088    6.783239469751    0.000000000000
 C    5.724793255500    4.973820131701    0.000000000000
 H    6.679153526182    5.504516498604    0.000000000000
 C    5.722281438972    3.566962374009    0.000000000000
 H    6.661983167575    3.006103582726    0.000000000000
