28

 C   -4.155003109348   -5.572543542110    0.000000000000
 H   -4.170423109348   -6.664033542110    0.000000000000
 C   -2.926243109348   -4.891983542110    0.000000000000
 H   -1.986053109348   -5.447193542110    0.000000000000
 C   -5.365873109348   -4.854613542110    0.000000000000
 H   -6.320233109348   -5.385303542110    0.000000000000
 C   -2.900853109348   -3.482323542110    0.000000000000
 H   -1.939933109348   -2.957193542110    0.000000000000
 C   -5.363363109348   -3.447753542110    0.000000000000
 H   -6.303063109348   -2.886893542110    0.000000000000
 C   -4.125963109348   -2.801853542110    0.000000000000
 O   -4.057353109348   -1.347543542110    0.000000000000
 H   -4.976543109348   -1.019393542110    0.000000000000
LI   -2.745583109348   -0.911873542110    1.469840000000
LI   -2.745583109348   -0.911873542110   -1.469840000000
 O    4.467022908053    1.483604372159    0.000000000000
 H    5.386223767593    1.155450718789    0.000000000000
 C    4.535640521351    2.937916507860    0.000000000000
 C    3.310521998206    3.618382959897    0.000000000000
 H    2.349599845642    3.093251434267    0.000000000000
 C    3.335910759041    5.028044345806    0.000000000000
 H    2.395728281510    5.583254975518    0.000000000000
 C    4.564672154246    5.708602178215    0.000000000000
 H    4.580087889424    6.800093321152    0.000000000000
 C    5.775538949835    4.990673983101    0.000000000000
 H    6.729899220517    5.521370350004    0.000000000000
 C    5.773027133308    3.583816225410    0.000000000000
 H    6.712728861911    3.022957434126    0.000000000000
