28

 C   -4.287474158607   -5.616540326631    0.000000000000
 H   -4.302894158607   -6.708030326631    0.000000000000
 C   -3.058714158607   -4.935980326631    0.000000000000
 H   -2.118524158607   -5.491190326631    0.000000000000
 C   -5.498344158607   -4.898610326631    0.000000000000
 H   -6.452704158607   -5.429300326631    0.000000000000
 C   -3.033324158607   -3.526320326631    0.000000000000
 H   -2.072404158607   -3.001190326631    0.000000000000
 C   -5.495834158607   -3.491750326631    0.000000000000
 H   -6.435534158607   -2.930890326631    0.000000000000
 C   -4.258434158607   -2.845850326631    0.000000000000
 O   -4.189824158607   -1.391540326631    0.000000000000
 H   -5.109014158607   -1.063390326631    0.000000000000
LI   -2.878054158607   -0.955870326631    1.469840000000
LI   -2.878054158607   -0.955870326631   -1.469840000000
 O    4.619259991060    1.534165926360    0.000000000000
 H    5.538460850601    1.206012272990    0.000000000000
 C    4.687877604358    2.988478062060    0.000000000000
 C    3.462759081214    3.668944514098    0.000000000000
 H    2.501836928649    3.143812988467    0.000000000000
 C    3.488147842048    5.078605900007    0.000000000000
 H    2.547965364518    5.633816529719    0.000000000000
 C    4.716909237253    5.759163732416    0.000000000000
 H    4.732324972432    6.850654875352    0.000000000000
 C    5.927776032843    5.041235537302    0.000000000000
 H    6.882136303525    5.571931904205    0.000000000000
 C    5.925264216315    3.634377779610    0.000000000000
 H    6.864965944918    3.073518988327    0.000000000000
