28

 C   -4.375788191446   -5.645871516311    0.000000000000
 H   -4.391208191446   -6.737361516311    0.000000000000
 C   -3.147028191446   -4.965311516311    0.000000000000
 H   -2.206838191446   -5.520521516311    0.000000000000
 C   -5.586658191446   -4.927941516311    0.000000000000
 H   -6.541018191446   -5.458631516311    0.000000000000
 C   -3.121638191446   -3.555651516311    0.000000000000
 H   -2.160718191446   -3.030521516311    0.000000000000
 C   -5.584148191446   -3.521081516311    0.000000000000
 H   -6.523848191446   -2.960221516311    0.000000000000
 C   -4.346748191446   -2.875181516311    0.000000000000
 O   -4.278138191446   -1.420871516311    0.000000000000
 H   -5.197328191446   -1.092721516311    0.000000000000
LI   -2.966368191446   -0.985201516311    1.469840000000
LI   -2.966368191446   -0.985201516311   -1.469840000000
 O    4.720751379732    1.567873629160    0.000000000000
 H    5.639952239272    1.239719975791    0.000000000000
 C    4.789368993029    3.022185764861    0.000000000000
 C    3.564250469885    3.702652216898    0.000000000000
 H    2.603328317321    3.177520691268    0.000000000000
 C    3.589639230719    5.112313602807    0.000000000000
 H    2.649456753189    5.667524232519    0.000000000000
 C    4.818400625925    5.792871435216    0.000000000000
 H    4.833816361103    6.884362578153    0.000000000000
 C    6.029267421514    5.074943240102    0.000000000000
 H    6.983627692196    5.605639607005    0.000000000000
 C    6.026755604986    3.668085482411    0.000000000000
 H    6.966457333590    3.107226691127    0.000000000000
