28

 C   -4.419945207865   -5.660537111151    0.000000000000
 H   -4.435365207865   -6.752027111151    0.000000000000
 C   -3.191185207865   -4.979977111151    0.000000000000
 H   -2.250995207865   -5.535187111151    0.000000000000
 C   -5.630815207865   -4.942607111151    0.000000000000
 H   -6.585175207865   -5.473297111151    0.000000000000
 C   -3.165795207865   -3.570317111151    0.000000000000
 H   -2.204875207865   -3.045187111151    0.000000000000
 C   -5.628305207865   -3.535747111151    0.000000000000
 H   -6.568005207865   -2.974887111151    0.000000000000
 C   -4.390905207865   -2.889847111151    0.000000000000
 O   -4.322295207865   -1.435537111151    0.000000000000
 H   -5.241485207865   -1.107387111151    0.000000000000
LI   -3.010525207865   -0.999867111151    1.469840000000
LI   -3.010525207865   -0.999867111151   -1.469840000000
 O    4.771497074067    1.584727480561    0.000000000000
 H    5.690697933608    1.256573827191    0.000000000000
 C    4.840114687365    3.039039616261    0.000000000000
 C    3.614996164221    3.719506068298    0.000000000000
 H    2.654074011656    3.194374542668    0.000000000000
 C    3.640384925055    5.129167454208    0.000000000000
 H    2.700202447525    5.684378083920    0.000000000000
 C    4.869146320261    5.809725286616    0.000000000000
 H    4.884562055439    6.901216429553    0.000000000000
 C    6.080013115850    5.091797091503    0.000000000000
 H    7.034373386532    5.622493458405    0.000000000000
 C    6.077501299322    3.684939333811    0.000000000000
 H    7.017203027926    3.124080542527    0.000000000000
