28

 C   -4.508259240704   -5.689868300831    0.000000000000
 H   -4.523679240704   -6.781358300831    0.000000000000
 C   -3.279499240704   -5.009308300831    0.000000000000
 H   -2.339309240704   -5.564518300831    0.000000000000
 C   -5.719129240704   -4.971938300831    0.000000000000
 H   -6.673489240704   -5.502628300831    0.000000000000
 C   -3.254109240704   -3.599648300831    0.000000000000
 H   -2.293189240704   -3.074518300831    0.000000000000
 C   -5.716619240704   -3.565078300831    0.000000000000
 H   -6.656319240704   -3.004218300831    0.000000000000
 C   -4.479219240704   -2.919178300831    0.000000000000
 O   -4.410609240704   -1.464868300831    0.000000000000
 H   -5.329799240704   -1.136718300831    0.000000000000
LI   -3.098839240704   -1.029198300831    1.469840000000
LI   -3.098839240704   -1.029198300831   -1.469840000000
 O    4.872988462739    1.618435183361    0.000000000000
 H    5.792189322280    1.290281529991    0.000000000000
 C    4.941606076037    3.072747319061    0.000000000000
 C    3.716487552892    3.753213771099    0.000000000000
 H    2.755565400328    3.228082245468    0.000000000000
 C    3.741876313727    5.162875157008    0.000000000000
 H    2.801693836197    5.718085786720    0.000000000000
 C    4.970637708932    5.843432989417    0.000000000000
 H    4.986053444110    6.934924132353    0.000000000000
 C    6.181504504522    5.125504794303    0.000000000000
 H    7.135864775204    5.656201161206    0.000000000000
 C    6.178992687994    3.718647036611    0.000000000000
 H    7.118694416597    3.157788245328    0.000000000000
