28

 C   -4.596573273543   -5.719199490512    0.000000000000
 H   -4.611993273543   -6.810689490512    0.000000000000
 C   -3.367813273543   -5.038639490512    0.000000000000
 H   -2.427623273543   -5.593849490512    0.000000000000
 C   -5.807443273543   -5.001269490512    0.000000000000
 H   -6.761803273543   -5.531959490512    0.000000000000
 C   -3.342423273543   -3.628979490512    0.000000000000
 H   -2.381503273543   -3.103849490512    0.000000000000
 C   -5.804933273543   -3.594409490512    0.000000000000
 H   -6.744633273543   -3.033549490512    0.000000000000
 C   -4.567533273543   -2.948509490512    0.000000000000
 O   -4.498923273543   -1.494199490512    0.000000000000
 H   -5.418113273543   -1.166049490512    0.000000000000
LI   -3.187153273543   -1.058529490512    1.469840000000
LI   -3.187153273543   -1.058529490512   -1.469840000000
 O    4.974479851410    1.652142886161    0.000000000000
 H    5.893680710951    1.323989232792    0.000000000000
 C    5.043097464708    3.106455021862    0.000000000000
 C    3.817978941564    3.786921473899    0.000000000000
 H    2.857056788999    3.261789948269    0.000000000000
 C    3.843367702398    5.196582859808    0.000000000000
 H    2.903185224868    5.751793489521    0.000000000000
 C    5.072129097604    5.877140692217    0.000000000000
 H    5.087544832782    6.968631835154    0.000000000000
 C    6.282995893193    5.159212497104    0.000000000000
 H    7.237356163875    5.689908864006    0.000000000000
 C    6.280484076665    3.752354739412    0.000000000000
 H    7.220185805269    3.191495948128    0.000000000000
