28

 C   -4.640730289963   -5.733865085352    0.000000000000
 H   -4.656150289963   -6.825355085352    0.000000000000
 C   -3.411970289963   -5.053305085352    0.000000000000
 H   -2.471780289963   -5.608515085352    0.000000000000
 C   -5.851600289963   -5.015935085352    0.000000000000
 H   -6.805960289963   -5.546625085352    0.000000000000
 C   -3.386580289963   -3.643645085352    0.000000000000
 H   -2.425660289963   -3.118515085352    0.000000000000
 C   -5.849090289963   -3.609075085352    0.000000000000
 H   -6.788790289963   -3.048215085352    0.000000000000
 C   -4.611690289963   -2.963175085352    0.000000000000
 O   -4.543080289963   -1.508865085352    0.000000000000
 H   -5.462270289963   -1.180715085352    0.000000000000
LI   -3.231310289963   -1.073195085352    1.469840000000
LI   -3.231310289963   -1.073195085352   -1.469840000000
 O    5.025225545746    1.668996737562    0.000000000000
 H    5.944426405287    1.340843084192    0.000000000000
 C    5.093843159044    3.123308873262    0.000000000000
 C    3.868724635900    3.803775325300    0.000000000000
 H    2.907802483335    3.278643799669    0.000000000000
 C    3.894113396734    5.213436711209    0.000000000000
 H    2.953930919204    5.768647340921    0.000000000000
 C    5.122874791939    5.893994543617    0.000000000000
 H    5.138290527118    6.985485686554    0.000000000000
 C    6.333741587529    5.176066348504    0.000000000000
 H    7.288101858211    5.706762715406    0.000000000000
 C    6.331229771001    3.769208590812    0.000000000000
 H    7.270931499604    3.208349799528    0.000000000000
