28

 C   -4.861515372060   -5.807193059553    0.000000000000
 H   -4.876935372060   -6.898683059553    0.000000000000
 C   -3.632755372060   -5.126633059553    0.000000000000
 H   -2.692565372060   -5.681843059553    0.000000000000
 C   -6.072385372060   -5.089263059553    0.000000000000
 H   -7.026745372060   -5.619953059553    0.000000000000
 C   -3.607365372060   -3.716973059553    0.000000000000
 H   -2.646445372060   -3.191843059553    0.000000000000
 C   -6.069875372060   -3.682403059553    0.000000000000
 H   -7.009575372060   -3.121543059553    0.000000000000
 C   -4.832475372060   -3.036503059553    0.000000000000
 O   -4.763865372060   -1.582193059553    0.000000000000
 H   -5.683055372060   -1.254043059553    0.000000000000
LI   -3.452095372060   -1.146523059553    1.469840000000
LI   -3.452095372060   -1.146523059553   -1.469840000000
 O    5.278954017425    1.753265994563    0.000000000000
 H    6.198154876966    1.425112341193    0.000000000000
 C    5.347571630723    3.207578130263    0.000000000000
 C    4.122453107579    3.888044582301    0.000000000000
 H    3.161530955014    3.362913056670    0.000000000000
 C    4.147841868413    5.297705968210    0.000000000000
 H    3.207659390883    5.852916597922    0.000000000000
 C    5.376603263618    5.978263800619    0.000000000000
 H    5.392018998797    7.069754943555    0.000000000000
 C    6.587470059208    5.260335605505    0.000000000000
 H    7.541830329890    5.791031972407    0.000000000000
 C    6.584958242680    3.853477847813    0.000000000000
 H    7.524659971283    3.292619056530    0.000000000000
