28

 C   -5.038143437738   -5.865855438913    0.000000000000
 H   -5.053563437738   -6.957345438913    0.000000000000
 C   -3.809383437738   -5.185295438913    0.000000000000
 H   -2.869193437738   -5.740505438913    0.000000000000
 C   -6.249013437738   -5.147925438913    0.000000000000
 H   -7.203373437738   -5.678615438913    0.000000000000
 C   -3.783993437738   -3.775635438913    0.000000000000
 H   -2.823073437738   -3.250505438913    0.000000000000
 C   -6.246503437738   -3.741065438913    0.000000000000
 H   -7.186203437738   -3.180205438913    0.000000000000
 C   -5.009103437738   -3.095165438913    0.000000000000
 O   -4.940493437738   -1.640855438913    0.000000000000
 H   -5.859683437738   -1.312705438913    0.000000000000
LI   -3.628723437738   -1.205185438913    1.469840000000
LI   -3.628723437738   -1.205185438913   -1.469840000000
 O    5.481936794768    1.820681400164    0.000000000000
 H    6.401137654309    1.492527746794    0.000000000000
 C    5.550554408066    3.274993535864    0.000000000000
 C    4.325435884922    3.955459987902    0.000000000000
 H    3.364513732357    3.430328462271    0.000000000000
 C    4.350824645756    5.365121373811    0.000000000000
 H    3.410642168226    5.920332003523    0.000000000000
 C    5.579586040961    6.045679206219    0.000000000000
 H    5.595001776140    7.137170349156    0.000000000000
 C    6.790452836551    5.327751011106    0.000000000000
 H    7.744813107233    5.858447378008    0.000000000000
 C    6.787941020023    3.920893253414    0.000000000000
 H    7.727642748626    3.360034462130    0.000000000000
