28

 C   -5.082300454158   -5.880521033754    0.000000000000
 H   -5.097720454158   -6.972011033754    0.000000000000
 C   -3.853540454158   -5.199961033754    0.000000000000
 H   -2.913350454158   -5.755171033754    0.000000000000
 C   -6.293170454158   -5.162591033754    0.000000000000
 H   -7.247530454158   -5.693281033754    0.000000000000
 C   -3.828150454158   -3.790301033754    0.000000000000
 H   -2.867230454158   -3.265171033754    0.000000000000
 C   -6.290660454158   -3.755731033754    0.000000000000
 H   -7.230360454158   -3.194871033754    0.000000000000
 C   -5.053260454158   -3.109831033754    0.000000000000
 O   -4.984650454158   -1.655521033754    0.000000000000
 H   -5.903840454158   -1.327371033754    0.000000000000
LI   -3.672880454158   -1.219851033754    1.469840000000
LI   -3.672880454158   -1.219851033754   -1.469840000000
 O    5.532682489104    1.837535251564    0.000000000000
 H    6.451883348645    1.509381598194    0.000000000000
 C    5.601300102402    3.291847387264    0.000000000000
 C    4.376181579257    3.972313839302    0.000000000000
 H    3.415259426693    3.447182313671    0.000000000000
 C    4.401570340092    5.381975225211    0.000000000000
 H    3.461387862562    5.937185854923    0.000000000000
 C    5.630331735297    6.062533057620    0.000000000000
 H    5.645747470476    7.154024200556    0.000000000000
 C    6.841198530887    5.344604862506    0.000000000000
 H    7.795558801569    5.875301229409    0.000000000000
 C    6.838686714359    3.937747104814    0.000000000000
 H    7.778388442962    3.376888313531    0.000000000000
