28

 C   -5.126457470577   -5.895186628594    0.000000000000
 H   -5.141877470577   -6.986676628594    0.000000000000
 C   -3.897697470577   -5.214626628594    0.000000000000
 H   -2.957507470577   -5.769836628594    0.000000000000
 C   -6.337327470577   -5.177256628594    0.000000000000
 H   -7.291687470577   -5.707946628594    0.000000000000
 C   -3.872307470577   -3.804966628594    0.000000000000
 H   -2.911387470577   -3.279836628594    0.000000000000
 C   -6.334817470577   -3.770396628594    0.000000000000
 H   -7.274517470577   -3.209536628594    0.000000000000
 C   -5.097417470577   -3.124496628594    0.000000000000
 O   -5.028807470577   -1.670186628594    0.000000000000
 H   -5.947997470577   -1.342036628594    0.000000000000
LI   -3.717037470577   -1.234516628594    1.469840000000
LI   -3.717037470577   -1.234516628594   -1.469840000000
 O    5.583428183440    1.854389102964    0.000000000000
 H    6.502629042980    1.526235449594    0.000000000000
 C    5.652045796738    3.308701238664    0.000000000000
 C    4.426927273593    3.989167690702    0.000000000000
 H    3.466005121029    3.464036165072    0.000000000000
 C    4.452316034428    5.398829076611    0.000000000000
 H    3.512133556898    5.954039706323    0.000000000000
 C    5.681077429633    6.079386909020    0.000000000000
 H    5.696493164811    7.170878051956    0.000000000000
 C    6.891944225222    5.361458713906    0.000000000000
 H    7.846304495904    5.892155080809    0.000000000000
 C    6.889432408695    3.954600956214    0.000000000000
 H    7.829134137298    3.393742164931    0.000000000000
