28

 C   -5.170614486997   -5.909852223434    0.000000000000
 H   -5.186034486997   -7.001342223434    0.000000000000
 C   -3.941854486997   -5.229292223434    0.000000000000
 H   -3.001664486997   -5.784502223434    0.000000000000
 C   -6.381484486997   -5.191922223434    0.000000000000
 H   -7.335844486997   -5.722612223434    0.000000000000
 C   -3.916464486997   -3.819632223434    0.000000000000
 H   -2.955544486997   -3.294502223434    0.000000000000
 C   -6.378974486997   -3.785062223434    0.000000000000
 H   -7.318674486997   -3.224202223434    0.000000000000
 C   -5.141574486997   -3.139162223434    0.000000000000
 O   -5.072964486997   -1.684852223434    0.000000000000
 H   -5.992154486997   -1.356702223434    0.000000000000
LI   -3.761194486997   -1.249182223434    1.469840000000
LI   -3.761194486997   -1.249182223434   -1.469840000000
 O    5.634173877776    1.871242954364    0.000000000000
 H    6.553374737316    1.543089300995    0.000000000000
 C    5.702791491073    3.325555090065    0.000000000000
 C    4.477672967929    4.006021542102    0.000000000000
 H    3.516750815365    3.480890016472    0.000000000000
 C    4.503061728763    5.415682928011    0.000000000000
 H    3.562879251233    5.970893557723    0.000000000000
 C    5.731823123969    6.096240760420    0.000000000000
 H    5.747238859147    7.187731903357    0.000000000000
 C    6.942689919558    5.378312565306    0.000000000000
 H    7.897050190240    5.909008932209    0.000000000000
 C    6.940178103030    3.971454807615    0.000000000000
 H    7.879879831634    3.410596016331    0.000000000000
