10

 H   -1.280013448074   -1.530922623092   -1.318457909645
 H   -0.378537448074   -0.328708623092   -2.293704909645
 H    0.522938551926   -1.530922623092   -1.318457909645
 C   -0.378537448074   -0.900073623092   -1.353985909645
 S   -0.378537448074    0.297801376908    0.018552090355
 C   -0.378537448074   -0.900073623092    1.391090090355
 H    0.522938551926   -1.530922623092    1.355562090355
 H   -0.378537448074   -0.328708623092    2.330809090355
 H   -1.280013448074   -1.530922623092    1.355562090355
 K    0.602522814117    0.485441760209   -0.029529595408
