10

 H   -4.686850480739   -2.182523988765   -1.151489096450
 H   -3.785374480739   -0.980309988765   -2.126736096450
 H   -2.883898480739   -2.182523988765   -1.151489096450
 C   -3.785374480739   -1.551674988765   -1.187017096450
 S   -3.785374480739   -0.353799988765    0.185520903550
 C   -3.785374480739   -1.551674988765    1.558058903550
 H   -2.883898480739   -2.182523988765    1.522530903550
 H   -3.785374480739   -0.980309988765    2.497777903550
 H   -4.686850480739   -2.182523988765    1.522530903550
 K    6.025228141166    1.522603844238   -0.295295954081
