10

 H   -1.696404640955   -1.610562790007   -1.298050610254
 H   -0.794928640955   -0.408348790007   -2.273297610254
 H    0.106547359045   -1.610562790007   -1.298050610254
 C   -0.794928640955   -0.979713790007   -1.333578610254
 S   -0.794928640955    0.218161209993    0.038959389746
 C   -0.794928640955   -0.979713790007    1.411497389746
 H    0.106547359045   -1.610562790007    1.375969389746
 H   -0.794928640955   -0.408348790007    2.351216389746
 H   -1.696404640955   -1.610562790007    1.375969389746
 K    1.265297909645    0.612206014923   -0.062012150357
