10

 H   -1.847819620185   -1.639522850704   -1.290629774112
 H   -0.946343620185   -0.437308850704   -2.265876774112
 H   -0.044867620185   -1.639522850704   -1.290629774112
 C   -0.946343620185   -1.008673850704   -1.326157774112
 S   -0.946343620185    0.189201149296    0.046380225888
 C   -0.946343620185   -1.008673850704    1.418918225888
 H   -0.044867620185   -1.639522850704    1.383390225888
 H   -0.946343620185   -0.437308850704    2.358637225888
 H   -1.847819620185   -1.639522850704    1.383390225888
 K    1.506307035291    0.658302107547   -0.073823988520
