10

 H   -2.150649578644   -1.697442972097   -1.275788101828
 H   -1.249173578644   -0.495228972097   -2.251035101828
 H   -0.347697578644   -1.697442972097   -1.275788101828
 C   -1.249173578644   -1.066593972097   -1.311316101828
 S   -1.249173578644    0.131281027903    0.061221898172
 C   -1.249173578644   -1.066593972097    1.433759898172
 H   -0.347697578644   -1.697442972097    1.398231898172
 H   -1.249173578644   -0.495228972097    2.373478898172
 H   -2.150649578644   -1.697442972097    1.398231898172
 K    1.988325286585    0.750494292794   -0.097447664847
