10

 H   -2.226357068258   -1.711923002445   -1.272077683757
 H   -1.324881068258   -0.509709002445   -2.247324683757
 H   -0.423405068258   -1.711923002445   -1.272077683757
 C   -1.324881068258   -1.081074002445   -1.307605683757
 S   -1.324881068258    0.116800997555    0.064932316243
 C   -1.324881068258   -1.081074002445    1.437470316243
 H   -0.423405068258   -1.711923002445    1.401942316243
 H   -1.324881068258   -0.509709002445    2.377189316243
 H   -2.226357068258   -1.711923002445    1.401942316243
 K    2.108829849408    0.773542339106   -0.103353583928
