10

 H   -2.339918302681   -1.733643047968   -1.266512056651
 H   -1.438442302681   -0.531429047968   -2.241759056651
 H   -0.536966302681   -1.733643047968   -1.266512056651
 C   -1.438442302681   -1.102794047968   -1.302040056651
 S   -1.438442302681    0.095080952032    0.070497943349
 C   -1.438442302681   -1.102794047968    1.443035943349
 H   -0.536966302681   -1.733643047968    1.407507943349
 H   -1.438442302681   -0.531429047968    2.382754943349
 H   -2.339918302681   -1.733643047968    1.407507943349
 K    2.289586693643    0.808114408573   -0.112212462551
