10

 H   -2.453479537103   -1.755363093490   -1.260946429544
 H   -1.552003537103   -0.553149093490   -2.236193429544
 H   -0.650527537103   -1.755363093490   -1.260946429544
 C   -1.552003537103   -1.124514093490   -1.296474429544
 S   -1.552003537103    0.073360906510    0.076063570456
 C   -1.552003537103   -1.124514093490    1.448601570456
 H   -0.650527537103   -1.755363093490    1.413073570456
 H   -1.552003537103   -0.553149093490    2.388320570456
 H   -2.453479537103   -1.755363093490    1.413073570456
 K    2.470343537878    0.842686478041   -0.121071341173
