10

 H   -2.529187026718   -1.769843123838   -1.257236011473
 H   -1.627711026718   -0.567629123838   -2.232483011473
 H   -0.726235026718   -1.769843123838   -1.257236011473
 C   -1.627711026718   -1.138994123838   -1.292764011473
 S   -1.627711026718    0.058880876162    0.079773988527
 C   -1.627711026718   -1.138994123838    1.452311988527
 H   -0.726235026718   -1.769843123838    1.416783988527
 H   -1.627711026718   -0.567629123838    2.392030988527
 H   -2.529187026718   -1.769843123838    1.416783988527
 K    2.590848100701    0.865734524353   -0.126977260255
