10

 H   -2.604894516332   -1.784323154187   -1.253525593402
 H   -1.703418516332   -0.582109154187   -2.228772593402
 H   -0.801942516332   -1.784323154187   -1.253525593402
 C   -1.703418516332   -1.153474154187   -1.289053593402
 S   -1.703418516332    0.044400845813    0.083484406598
 C   -1.703418516332   -1.153474154187    1.456022406598
 H   -0.801942516332   -1.784323154187    1.420494406598
 H   -1.703418516332   -0.582109154187    2.395741406598
 H   -2.604894516332   -1.784323154187    1.420494406598
 K    2.711352663524    0.888782570664   -0.132883179337
