10

 H   -2.832016985177   -1.827763245232   -1.242394339189
 H   -1.930540985177   -0.625549245232   -2.217641339189
 H   -1.029064985177   -1.827763245232   -1.242394339189
 C   -1.930540985177   -1.196914245232   -1.277922339189
 S   -1.930540985177    0.000960754768    0.094615660811
 C   -1.930540985177   -1.196914245232    1.467153660811
 H   -1.029064985177   -1.827763245232    1.431625660811
 H   -1.930540985177   -0.625549245232    2.406872660811
 H   -2.832016985177   -1.827763245232    1.431625660811
 K    3.072866351994    0.957926709600   -0.150600936581
