10

 H   -2.907724474791   -1.842243275580   -1.238683921118
 H   -2.006248474791   -0.640029275580   -2.213930921118
 H   -1.104772474791   -1.842243275580   -1.238683921118
 C   -2.006248474791   -1.211394275580   -1.274211921118
 S   -2.006248474791   -0.013519275580    0.098326078882
 C   -2.006248474791   -1.211394275580    1.470864078882
 H   -1.104772474791   -1.842243275580    1.435336078882
 H   -2.006248474791   -0.640029275580    2.410583078882
 H   -2.907724474791   -1.842243275580    1.435336078882
 K    3.193370914818    0.980974755912   -0.156506855663
