10

 H   -3.096993198828   -1.878443351451   -1.229407875941
 H   -2.195517198828   -0.676229351451   -2.204654875941
 H   -1.294041198828   -1.878443351451   -1.229407875941
 C   -2.195517198828   -1.247594351451   -1.264935875941
 S   -2.195517198828   -0.049719351451    0.107602124059
 C   -2.195517198828   -1.247594351451    1.480140124059
 H   -1.294041198828   -1.878443351451    1.444612124059
 H   -2.195517198828   -0.676229351451    2.419859124059
 H   -3.096993198828   -1.878443351451    1.444612124059
 K    3.494632321876    1.038594871691   -0.171271653367
