10

 H   -3.248408178058   -1.907403412147   -1.221987039799
 H   -2.346932178058   -0.705189412147   -2.197234039799
 H   -1.445456178058   -1.907403412147   -1.221987039799
 C   -2.346932178058   -1.276554412147   -1.257515039799
 S   -2.346932178058   -0.078679412147    0.115022960201
 C   -2.346932178058   -1.276554412147    1.487560960201
 H   -1.445456178058   -1.907403412147    1.452032960201
 H   -2.346932178058   -0.705189412147    2.427279960201
 H   -3.248408178058   -1.907403412147    1.452032960201
 K    3.735641447523    1.084690964314   -0.183083491530
