10

 H   -3.286261922865   -1.914643427321   -1.220131830763
 H   -2.384785922865   -0.712429427321   -2.195378830763
 H   -1.483309922865   -1.914643427321   -1.220131830763
 C   -2.384785922865   -1.283794427321   -1.255659830763
 S   -2.384785922865   -0.085919427321    0.116878169237
 C   -2.384785922865   -1.283794427321    1.489416169237
 H   -1.483309922865   -1.914643427321    1.453888169237
 H   -2.384785922865   -0.712429427321    2.429135169237
 H   -3.286261922865   -1.914643427321    1.453888169237
 K    3.795893728934    1.096214987470   -0.186036451071
