10

 H   -3.324115667673   -1.921883442495   -1.218276621728
 H   -2.422639667673   -0.719669442495   -2.193523621728
 H   -1.521163667673   -1.921883442495   -1.218276621728
 C   -2.422639667673   -1.291034442495   -1.253804621728
 S   -2.422639667673   -0.093159442495    0.118733378272
 C   -2.422639667673   -1.291034442495    1.491271378272
 H   -1.521163667673   -1.921883442495    1.455743378272
 H   -2.422639667673   -0.719669442495    2.430990378272
 H   -3.324115667673   -1.921883442495    1.455743378272
 K    3.856146010346    1.107739010626   -0.188989410612
