10

 H   -3.437676902095   -1.943603488018   -1.212710994621
 H   -2.536200902095   -0.741389488018   -2.187957994621
 H   -1.634724902095   -1.943603488018   -1.212710994621
 C   -2.536200902095   -1.312754488018   -1.248238994621
 S   -2.536200902095   -0.114879488018    0.124299005379
 C   -2.536200902095   -1.312754488018    1.496837005379
 H   -1.634724902095   -1.943603488018    1.461309005379
 H   -2.536200902095   -0.741389488018    2.436556005379
 H   -3.437676902095   -1.943603488018    1.461309005379
 K    4.036902854581    1.142311080094   -0.197848289234
