10

 H   -3.513384391710   -1.958083518366   -1.209000576550
 H   -2.611908391710   -0.755869518366   -2.184247576550
 H   -1.710432391710   -1.958083518366   -1.209000576550
 C   -2.611908391710   -1.327234518366   -1.244528576550
 S   -2.611908391710   -0.129359518366    0.128009423450
 C   -2.611908391710   -1.327234518366    1.500547423450
 H   -1.710432391710   -1.958083518366    1.465019423450
 H   -2.611908391710   -0.755869518366    2.440266423450
 H   -3.513384391710   -1.958083518366    1.465019423450
 K    4.157407417404    1.165359126406   -0.203754208316
