10

 H   -3.702653115747   -1.994283594237   -1.199724531373
 H   -2.801177115747   -0.792069594237   -2.174971531373
 H   -1.899701115747   -1.994283594237   -1.199724531373
 C   -2.801177115747   -1.363434594237   -1.235252531373
 S   -2.801177115747   -0.165559594237    0.137285468627
 C   -2.801177115747   -1.363434594237    1.509823468627
 H   -1.899701115747   -1.994283594237    1.474295468627
 H   -2.801177115747   -0.792069594237    2.449542468627
 H   -3.702653115747   -1.994283594237    1.474295468627
 K    4.458668824463    1.222979242185   -0.218519006020
