10

 H   -3.740506860554   -2.001523609411   -1.197869322337
 H   -2.839030860554   -0.799309609411   -2.173116322337
 H   -1.937554860554   -2.001523609411   -1.197869322337
 C   -2.839030860554   -1.370674609411   -1.233397322337
 S   -2.839030860554   -0.172799609411    0.139140677663
 C   -2.839030860554   -1.370674609411    1.511678677663
 H   -1.937554860554   -2.001523609411    1.476150677663
 H   -2.839030860554   -0.799309609411    2.451397677663
 H   -3.740506860554   -2.001523609411    1.476150677663
 K    4.518921105874    1.234503265341   -0.221471965561
