10

 H   -3.891921839783   -2.030483670108   -1.190448486195
 H   -2.990445839783   -0.828269670108   -2.165695486195
 H   -2.088969839783   -2.030483670108   -1.190448486195
 C   -2.990445839783   -1.399634670108   -1.225976486195
 S   -2.990445839783   -0.201759670108    0.146561513805
 C   -2.990445839783   -1.399634670108    1.519099513805
 H   -2.088969839783   -2.030483670108    1.483571513805
 H   -2.990445839783   -0.828269670108    2.458818513805
 H   -3.891921839783   -2.030483670108    1.483571513805
 K    4.759930231521    1.280599357964   -0.233283803724
