10

 H   -3.929775584591   -2.037723685282   -1.188593277160
 H   -3.028299584591   -0.835509685282   -2.163840277160
 H   -2.126823584591   -2.037723685282   -1.188593277160
 C   -3.028299584591   -1.406874685282   -1.224121277160
 S   -3.028299584591   -0.208999685282    0.148416722840
 C   -3.028299584591   -1.406874685282    1.520954722840
 H   -2.126823584591   -2.037723685282    1.485426722840
 H   -3.028299584591   -0.835509685282    2.460673722840
 H   -3.929775584591   -2.037723685282    1.485426722840
 K    4.820182512932    1.292123381120   -0.236236763265
