10

 H   -4.232605543050   -2.095643806675   -1.173751604876
 H   -3.331129543050   -0.893429806675   -2.148998604876
 H   -2.429653543050   -2.095643806675   -1.173751604876
 C   -3.331129543050   -1.464794806675   -1.209279604876
 S   -3.331129543050   -0.266919806675    0.163258395124
 C   -3.331129543050   -1.464794806675    1.535796395124
 H   -2.429653543050   -2.095643806675    1.500268395124
 H   -3.331129543050   -0.893429806675    2.475515395124
 H   -4.232605543050   -2.095643806675    1.500268395124
 K    5.302200764226    1.384315566367   -0.259860439591
