10

 H   -4.308313032665   -2.110123837023   -1.170041186805
 H   -3.406837032665   -0.907909837023   -2.145288186805
 H   -2.505361032665   -2.110123837023   -1.170041186805
 C   -3.406837032665   -1.479274837023   -1.205569186805
 S   -3.406837032665   -0.281399837023    0.166968813195
 C   -3.406837032665   -1.479274837023    1.539506813195
 H   -2.505361032665   -2.110123837023    1.503978813195
 H   -3.406837032665   -0.907909837023    2.479225813195
 H   -4.308313032665   -2.110123837023    1.503978813195
 K    5.422705327049    1.407363612679   -0.265766358673
