10

 H   -4.421874267087   -2.131843882546   -1.164475559698
 H   -3.520398267087   -0.929629882546   -2.139722559698
 H   -2.618922267087   -2.131843882546   -1.164475559698
 C   -3.520398267087   -1.500994882546   -1.200003559698
 S   -3.520398267087   -0.303119882546    0.172534440302
 C   -3.520398267087   -1.500994882546    1.545072440302
 H   -2.618922267087   -2.131843882546    1.509544440302
 H   -3.520398267087   -0.929629882546    2.484791440302
 H   -4.421874267087   -2.131843882546    1.509544440302
 K    5.603462171284    1.441935682147   -0.274625237295
