10

 H   -4.497581756702   -2.146323912894   -1.160765141627
 H   -3.596105756702   -0.944109912894   -2.136012141627
 H   -2.694629756702   -2.146323912894   -1.160765141627
 C   -3.596105756702   -1.515474912894   -1.196293141627
 S   -3.596105756702   -0.317599912894    0.176244858373
 C   -3.596105756702   -1.515474912894    1.548782858373
 H   -2.694629756702   -2.146323912894    1.513254858373
 H   -3.596105756702   -0.944109912894    2.488501858373
 H   -4.497581756702   -2.146323912894    1.513254858373
 K    5.723966734107    1.464983728459   -0.280531156377
