10

 H   -4.535435501509   -2.153563928068   -1.158909932592
 H   -3.633959501509   -0.951349928068   -2.134156932592
 H   -2.732483501509   -2.153563928068   -1.158909932592
 C   -3.633959501509   -1.522714928068   -1.194437932592
 S   -3.633959501509   -0.324839928068    0.178100067408
 C   -3.633959501509   -1.522714928068    1.550638067408
 H   -2.732483501509   -2.153563928068    1.515110067408
 H   -3.633959501509   -0.951349928068    2.490357067408
 H   -4.535435501509   -2.153563928068    1.515110067408
 K    5.784219015519    1.476507751614   -0.283484115918
