10

 H   -4.573289246316   -2.160803943242   -1.157054723556
 H   -3.671813246316   -0.958589943242   -2.132301723556
 H   -2.770337246316   -2.160803943242   -1.157054723556
 C   -3.671813246316   -1.529954943242   -1.192582723556
 S   -3.671813246316   -0.332079943242    0.179955276444
 C   -3.671813246316   -1.529954943242    1.552493276444
 H   -2.770337246316   -2.160803943242    1.516965276444
 H   -3.671813246316   -0.958589943242    2.492212276444
 H   -4.573289246316   -2.160803943242    1.516965276444
 K    5.844471296931    1.488031774770   -0.286437075459
