10

 H   -4.611142991124   -2.168043958416   -1.155199514521
 H   -3.709666991124   -0.965829958416   -2.130446514521
 H   -2.808190991124   -2.168043958416   -1.155199514521
 C   -3.709666991124   -1.537194958416   -1.190727514521
 S   -3.709666991124   -0.339319958416    0.181810485479
 C   -3.709666991124   -1.537194958416    1.554348485479
 H   -2.808190991124   -2.168043958416    1.518820485479
 H   -3.709666991124   -0.965829958416    2.494067485479
 H   -4.611142991124   -2.168043958416    1.518820485479
 K    5.904723578342    1.499555797926   -0.289390035000
