10

 H   -4.648996735931   -2.175283973590   -1.153344305485
 H   -3.747520735931   -0.973069973590   -2.128591305485
 H   -2.846044735931   -2.175283973590   -1.153344305485
 C   -3.747520735931   -1.544434973590   -1.188872305485
 S   -3.747520735931   -0.346559973590    0.183665694515
 C   -3.747520735931   -1.544434973590    1.556203694515
 H   -2.846044735931   -2.175283973590    1.520675694515
 H   -3.747520735931   -0.973069973590    2.495922694515
 H   -4.648996735931   -2.175283973590    1.520675694515
 K    5.964975859754    1.511079821082   -0.292342994540
