12

 C   -0.754660404320    1.724420170295    0.000000000000
 C    0.357681595680    0.704942170295    0.000000000000
 O   -0.146649404320   -0.561510829705    0.000000000000
 C    0.867816595680   -1.595249829705    0.000000000000
 O    1.555321595680    0.949435170295    0.000000000000
 H   -0.322090404320    2.731430170295    0.000000000000
 H   -1.386997404320    1.581848170295    0.888615000000
 H   -1.386997404320    1.581848170295   -0.888615000000
 H    0.313719595680   -2.540373829705    0.000000000000
 H    1.497611595680   -1.508950829705    0.896190000000
 H    1.497611595680   -1.508950829705   -0.896190000000
NA   -1.235165421427   -0.720044360864    0.000000000000
