12

 C   -0.707766524759    1.731249883592    0.000000000000
 C    0.404575475241    0.711771883592    0.000000000000
 O   -0.099755524759   -0.554681116408    0.000000000000
 C    0.914710475241   -1.588420116408    0.000000000000
 O    1.602215475241    0.956264883592    0.000000000000
 H   -0.275196524759    2.738259883592    0.000000000000
 H   -1.340103524759    1.588677883592    0.888615000000
 H   -1.340103524759    1.588677883592   -0.888615000000
 H    0.360613475241   -2.533544116408    0.000000000000
 H    1.544505475241   -1.502121116408    0.896190000000
 H    1.544505475241   -1.502121116408   -0.896190000000
NA   -1.386183544976   -0.742038925959    0.000000000000
