12

 C   -0.613978765637    1.744909310187    0.000000000000
 C    0.498363234363    0.725431310187    0.000000000000
 O   -0.005967765637   -0.541021689813    0.000000000000
 C    1.008498234363   -1.574760689813    0.000000000000
 O    1.696003234363    0.969924310187    0.000000000000
 H   -0.181408765637    2.751919310187    0.000000000000
 H   -1.246315765637    1.602337310187    0.888615000000
 H   -1.246315765637    1.602337310187   -0.888615000000
 H    0.454401234363   -2.519884689813    0.000000000000
 H    1.638293234363   -1.488461689813    0.896190000000
 H    1.638293234363   -1.488461689813   -0.896190000000
NA   -1.688219792075   -0.786028056150    0.000000000000
