12

 C   -0.590531825856    1.748324166836    0.000000000000
 C    0.521810174144    0.728846166836    0.000000000000
 O    0.017479174144   -0.537606833164    0.000000000000
 C    1.031945174144   -1.571345833164    0.000000000000
 O    1.719450174144    0.973339166836    0.000000000000
 H   -0.157961825856    2.755334166836    0.000000000000
 H   -1.222868825856    1.605752166836    0.888615000000
 H   -1.222868825856    1.605752166836   -0.888615000000
 H    0.477848174144   -2.516469833164    0.000000000000
 H    1.661740174144   -1.485046833164    0.896190000000
 H    1.661740174144   -1.485046833164   -0.896190000000
NA   -1.763728853849   -0.797025338697    0.000000000000
