12

 C   -0.567084886076    1.751739023485    0.000000000000
 C    0.545257113924    0.732261023485    0.000000000000
 O    0.040926113924   -0.534191976515    0.000000000000
 C    1.055392113924   -1.567930976515    0.000000000000
 O    1.742897113924    0.976754023485    0.000000000000
 H   -0.134514886076    2.758749023485    0.000000000000
 H   -1.199421886076    1.609167023485    0.888615000000
 H   -1.199421886076    1.609167023485   -0.888615000000
 H    0.501295113924   -2.513054976515    0.000000000000
 H    1.685187113924   -1.481631976515    0.896190000000
 H    1.685187113924   -1.481631976515   -0.896190000000
NA   -1.839237915624   -0.808022621245    0.000000000000
