12

 C   -0.520191006515    1.758568736782    0.000000000000
 C    0.592150993485    0.739090736782    0.000000000000
 O    0.087819993485   -0.527362263218    0.000000000000
 C    1.102285993485   -1.561101263218    0.000000000000
 O    1.789790993485    0.983583736782    0.000000000000
 H   -0.087621006515    2.765578736782    0.000000000000
 H   -1.152528006515    1.615996736782    0.888615000000
 H   -1.152528006515    1.615996736782   -0.888615000000
 H    0.548188993485   -2.506225263218    0.000000000000
 H    1.732080993485   -1.474802263218    0.896190000000
 H    1.732080993485   -1.474802263218   -0.896190000000
NA   -1.990256039173   -0.830017186340    0.000000000000
