12

 C   -0.473297126954    1.765398450080    0.000000000000
 C    0.639044873046    0.745920450080    0.000000000000
 O    0.134713873046   -0.520532549920    0.000000000000
 C    1.149179873046   -1.554271549920    0.000000000000
 O    1.836684873046    0.990413450080    0.000000000000
 H   -0.040727126954    2.772408450080    0.000000000000
 H   -1.105634126954    1.622826450080    0.888615000000
 H   -1.105634126954    1.622826450080   -0.888615000000
 H    0.595082873046   -2.499395549920    0.000000000000
 H    1.778974873046   -1.467972549920    0.896190000000
 H    1.778974873046   -1.467972549920   -0.896190000000
NA   -2.141274162722   -0.852011751435    0.000000000000
