12

 C   -0.449850187173    1.768813306729    0.000000000000
 C    0.662491812827    0.749335306729    0.000000000000
 O    0.158160812827   -0.517117693271    0.000000000000
 C    1.172626812827   -1.550856693271    0.000000000000
 O    1.860131812827    0.993828306729    0.000000000000
 H   -0.017280187173    2.775823306729    0.000000000000
 H   -1.082187187173    1.626241306729    0.888615000000
 H   -1.082187187173    1.626241306729   -0.888615000000
 H    0.618529812827   -2.495980693271    0.000000000000
 H    1.802421812827   -1.464557693271    0.896190000000
 H    1.802421812827   -1.464557693271   -0.896190000000
NA   -2.216783224497   -0.863009033982    0.000000000000
