12

 C   -0.402956307612    1.775643020026    0.000000000000
 C    0.709385692388    0.756165020026    0.000000000000
 O    0.205054692388   -0.510287979974    0.000000000000
 C    1.219520692388   -1.544026979974    0.000000000000
 O    1.907025692388    1.000658020026    0.000000000000
 H    0.029613692388    2.782653020026    0.000000000000
 H   -1.035293307612    1.633071020026    0.888615000000
 H   -1.035293307612    1.633071020026   -0.888615000000
 H    0.665423692388   -2.489150979974    0.000000000000
 H    1.849315692388   -1.457727979974    0.896190000000
 H    1.849315692388   -1.457727979974   -0.896190000000
NA   -2.367801348046   -0.885003599078    0.000000000000
