12

 C   -0.262274668929    1.796132159919    0.000000000000
 C    0.850067331071    0.776654159919    0.000000000000
 O    0.345736331071   -0.489798840081    0.000000000000
 C    1.360202331071   -1.523537840081    0.000000000000
 O    2.047707331071    1.021147159919    0.000000000000
 H    0.170295331071    2.803142159919    0.000000000000
 H   -0.894611668929    1.653560159919    0.888615000000
 H   -0.894611668929    1.653560159919   -0.888615000000
 H    0.806105331071   -2.468661840081    0.000000000000
 H    1.989997331071   -1.437238840081    0.896190000000
 H    1.989997331071   -1.437238840081   -0.896190000000
NA   -2.820855718694   -0.950987294363    0.000000000000
