12

 C   -0.215380789368    1.802961873216    0.000000000000
 C    0.896961210632    0.783483873216    0.000000000000
 O    0.392630210632   -0.482969126784    0.000000000000
 C    1.407096210632   -1.516708126784    0.000000000000
 O    2.094601210632    1.027976873216    0.000000000000
 H    0.217189210632    2.809971873216    0.000000000000
 H   -0.847717789368    1.660389873216    0.888615000000
 H   -0.847717789368    1.660389873216   -0.888615000000
 H    0.852999210632   -2.461832126784    0.000000000000
 H    2.036891210632   -1.430409126784    0.896190000000
 H    2.036891210632   -1.430409126784   -0.896190000000
NA   -2.971873842243   -0.972981859458    0.000000000000
