12

 C   -0.191933849587    1.806376729865    0.000000000000
 C    0.920408150413    0.786898729865    0.000000000000
 O    0.416077150413   -0.479554270135    0.000000000000
 C    1.430543150413   -1.513293270135    0.000000000000
 O    2.118048150413    1.031391729865    0.000000000000
 H    0.240636150413    2.813386729865    0.000000000000
 H   -0.824270849587    1.663804729865    0.888615000000
 H   -0.824270849587    1.663804729865   -0.888615000000
 H    0.876446150413   -2.458417270135    0.000000000000
 H    2.060338150413   -1.426994270135    0.896190000000
 H    2.060338150413   -1.426994270135   -0.896190000000
NA   -3.047382904018   -0.983979142005    0.000000000000
