12

 C   -0.168486909807    1.809791586514    0.000000000000
 C    0.943855090193    0.790313586514    0.000000000000
 O    0.439524090193   -0.476139413486    0.000000000000
 C    1.453990090193   -1.509878413486    0.000000000000
 O    2.141495090193    1.034806586514    0.000000000000
 H    0.264083090193    2.816801586514    0.000000000000
 H   -0.800823909807    1.667219586514    0.888615000000
 H   -0.800823909807    1.667219586514   -0.888615000000
 H    0.899893090193   -2.455002413486    0.000000000000
 H    2.083785090193   -1.423579413486    0.896190000000
 H    2.083785090193   -1.423579413486   -0.896190000000
NA   -3.122891965793   -0.994976424553    0.000000000000
