12

 C   -0.098146090465    1.820036156460    0.000000000000
 C    1.014195909535    0.800558156460    0.000000000000
 O    0.509864909535   -0.465894843540    0.000000000000
 C    1.524330909535   -1.499633843540    0.000000000000
 O    2.211835909535    1.045051156460    0.000000000000
 H    0.334423909535    2.827046156460    0.000000000000
 H   -0.730483090465    1.677464156460    0.888615000000
 H   -0.730483090465    1.677464156460   -0.888615000000
 H    0.970233909535   -2.444757843540    0.000000000000
 H    2.154125909535   -1.413334843540    0.896190000000
 H    2.154125909535   -1.413334843540   -0.896190000000
NA   -3.349419151117   -1.027968272196    0.000000000000
