12

 C   -0.027805271123    1.830280726406    0.000000000000
 C    1.084536728877    0.810802726406    0.000000000000
 O    0.580205728877   -0.455650273594    0.000000000000
 C    1.594671728877   -1.489389273594    0.000000000000
 O    2.282176728877    1.055295726406    0.000000000000
 H    0.404764728877    2.837290726406    0.000000000000
 H   -0.660142271123    1.687708726406    0.888615000000
 H   -0.660142271123    1.687708726406   -0.888615000000
 H    1.040574728877   -2.434513273594    0.000000000000
 H    2.224466728877   -1.403090273594    0.896190000000
 H    2.224466728877   -1.403090273594   -0.896190000000
NA   -3.575946336440   -1.060960119838    0.000000000000
