12

 C    0.019088608438    1.837110439704    0.000000000000
 C    1.131430608438    0.817632439704    0.000000000000
 O    0.627099608438   -0.448820560296    0.000000000000
 C    1.641565608438   -1.482559560296    0.000000000000
 O    2.329070608438    1.062125439704    0.000000000000
 H    0.451658608438    2.844120439704    0.000000000000
 H   -0.613248391562    1.694538439704    0.888615000000
 H   -0.613248391562    1.694538439704   -0.888615000000
 H    1.087468608438   -2.427683560296    0.000000000000
 H    2.271360608438   -1.396260560296    0.896190000000
 H    2.271360608438   -1.396260560296   -0.896190000000
NA   -3.726964459990   -1.082954684933    0.000000000000
