12

 C    0.089429427779    1.847355009650    0.000000000000
 C    1.201771427779    0.827877009650    0.000000000000
 O    0.697440427779   -0.438575990350    0.000000000000
 C    1.711906427779   -1.472314990350    0.000000000000
 O    2.399411427779    1.072370009650    0.000000000000
 H    0.521999427779    2.854365009650    0.000000000000
 H   -0.542907572221    1.704783009650    0.888615000000
 H   -0.542907572221    1.704783009650   -0.888615000000
 H    1.157809427779   -2.417438990350    0.000000000000
 H    2.341701427779   -1.386015990350    0.896190000000
 H    2.341701427779   -1.386015990350   -0.896190000000
NA   -3.953491645314   -1.115946532576    0.000000000000
