12

 C    0.112876367560    1.850769866299    0.000000000000
 C    1.225218367560    0.831291866299    0.000000000000
 O    0.720887367560   -0.435161133701    0.000000000000
 C    1.735353367560   -1.468900133701    0.000000000000
 O    2.422858367560    1.075784866299    0.000000000000
 H    0.545446367560    2.857779866299    0.000000000000
 H   -0.519460632440    1.708197866299    0.888615000000
 H   -0.519460632440    1.708197866299   -0.888615000000
 H    1.181256367560   -2.414024133701    0.000000000000
 H    2.365148367560   -1.382601133701    0.896190000000
 H    2.365148367560   -1.382601133701   -0.896190000000
NA   -4.029000707088   -1.126943815124    0.000000000000
