12

 C    0.183217186901    1.861014436245    0.000000000000
 C    1.295559186901    0.841536436245    0.000000000000
 O    0.791228186901   -0.424916563755    0.000000000000
 C    1.805694186901   -1.458655563755    0.000000000000
 O    2.493199186901    1.086029436245    0.000000000000
 H    0.615787186901    2.868024436245    0.000000000000
 H   -0.449119813099    1.718442436245    0.888615000000
 H   -0.449119813099    1.718442436245   -0.888615000000
 H    1.251597186901   -2.403779563755    0.000000000000
 H    2.435489186901   -1.372356563755    0.896190000000
 H    2.435489186901   -1.372356563755   -0.896190000000
NA   -4.255527892412   -1.159935662766    0.000000000000
