12

 C    0.206664126682    1.864429292894    0.000000000000
 C    1.319006126682    0.844951292894    0.000000000000
 O    0.814675126682   -0.421501707106    0.000000000000
 C    1.829141126682   -1.455240707106    0.000000000000
 O    2.516646126682    1.089444292894    0.000000000000
 H    0.639234126682    2.871439292894    0.000000000000
 H   -0.425672873318    1.721857292894    0.888615000000
 H   -0.425672873318    1.721857292894   -0.888615000000
 H    1.275044126682   -2.400364707106    0.000000000000
 H    2.458936126682   -1.368941707106    0.896190000000
 H    2.458936126682   -1.368941707106   -0.896190000000
NA   -4.331036954187   -1.170932945314    0.000000000000
