12

 C    0.253558006243    1.871259006191    0.000000000000
 C    1.365900006243    0.851781006191    0.000000000000
 O    0.861569006243   -0.414671993809    0.000000000000
 C    1.876035006243   -1.448410993809    0.000000000000
 O    2.563540006243    1.096274006191    0.000000000000
 H    0.686128006243    2.878269006191    0.000000000000
 H   -0.378778993757    1.728687006191    0.888615000000
 H   -0.378778993757    1.728687006191   -0.888615000000
 H    1.321938006243   -2.393534993809    0.000000000000
 H    2.505830006243   -1.362111993809    0.896190000000
 H    2.505830006243   -1.362111993809   -0.896190000000
NA   -4.482055077736   -1.192927510409    0.000000000000
