12

 C    0.277004946024    1.874673862840    0.000000000000
 C    1.389346946024    0.855195862840    0.000000000000
 O    0.885015946024   -0.411257137160    0.000000000000
 C    1.899481946024   -1.444996137160    0.000000000000
 O    2.586986946024    1.099688862840    0.000000000000
 H    0.709574946024    2.881683862840    0.000000000000
 H   -0.355332053976    1.732101862840    0.888615000000
 H   -0.355332053976    1.732101862840   -0.888615000000
 H    1.345384946024   -2.390120137160    0.000000000000
 H    2.529276946024   -1.358697137160    0.896190000000
 H    2.529276946024   -1.358697137160   -0.896190000000
NA   -4.557564139511   -1.203924792956    0.000000000000
