12

 C    0.300451885804    1.878088719489    0.000000000000
 C    1.412793885804    0.858610719489    0.000000000000
 O    0.908462885804   -0.407842280511    0.000000000000
 C    1.922928885804   -1.441581280511    0.000000000000
 O    2.610433885804    1.103103719489    0.000000000000
 H    0.733021885804    2.885098719489    0.000000000000
 H   -0.331885114196    1.735516719489    0.888615000000
 H   -0.331885114196    1.735516719489   -0.888615000000
 H    1.368831885804   -2.386705280511    0.000000000000
 H    2.552723885804   -1.355282280511    0.896190000000
 H    2.552723885804   -1.355282280511   -0.896190000000
NA   -4.633073201285   -1.214922075504    0.000000000000
