12

 C    0.323898825585    1.881503576137    0.000000000000
 C    1.436240825585    0.862025576137    0.000000000000
 O    0.931909825585   -0.404427423863    0.000000000000
 C    1.946375825585   -1.438166423863    0.000000000000
 O    2.633880825585    1.106518576137    0.000000000000
 H    0.756468825585    2.888513576137    0.000000000000
 H   -0.308438174415    1.738931576137    0.888615000000
 H   -0.308438174415    1.738931576137   -0.888615000000
 H    1.392278825585   -2.383290423863    0.000000000000
 H    2.576170825585   -1.351867423863    0.896190000000
 H    2.576170825585   -1.351867423863   -0.896190000000
NA   -4.708582263060   -1.225919358052    0.000000000000
