12

 C    0.347345765365    1.884918432786    0.000000000000
 C    1.459687765365    0.865440432786    0.000000000000
 O    0.955356765365   -0.401012567214    0.000000000000
 C    1.969822765365   -1.434751567214    0.000000000000
 O    2.657327765365    1.109933432786    0.000000000000
 H    0.779915765365    2.891928432786    0.000000000000
 H   -0.284991234635    1.742346432786    0.888615000000
 H   -0.284991234635    1.742346432786   -0.888615000000
 H    1.415725765365   -2.379875567214    0.000000000000
 H    2.599617765365   -1.348452567214    0.896190000000
 H    2.599617765365   -1.348452567214   -0.896190000000
NA   -4.784091324835   -1.236916640599    0.000000000000
