12

 C    0.417686584707    1.895163002732    0.000000000000
 C    1.530028584707    0.875685002732    0.000000000000
 O    1.025697584707   -0.390767997268    0.000000000000
 C    2.040163584707   -1.424506997268    0.000000000000
 O    2.727668584707    1.120178002732    0.000000000000
 H    0.850256584707    2.902173002732    0.000000000000
 H   -0.214650415293    1.752591002732    0.888615000000
 H   -0.214650415293    1.752591002732   -0.888615000000
 H    1.486066584707   -2.369630997268    0.000000000000
 H    2.669958584707   -1.338207997268    0.896190000000
 H    2.669958584707   -1.338207997268   -0.896190000000
NA   -5.010618510158   -1.269908488242    0.000000000000
