12

 C    0.441133524487    1.898577859381    0.000000000000
 C    1.553475524487    0.879099859381    0.000000000000
 O    1.049144524487   -0.387353140619    0.000000000000
 C    2.063610524487   -1.421092140619    0.000000000000
 O    2.751115524487    1.123592859381    0.000000000000
 H    0.873703524487    2.905587859381    0.000000000000
 H   -0.191203475513    1.756005859381    0.888615000000
 H   -0.191203475513    1.756005859381   -0.888615000000
 H    1.509513524487   -2.366216140619    0.000000000000
 H    2.693405524487   -1.334793140619    0.896190000000
 H    2.693405524487   -1.334793140619   -0.896190000000
NA   -5.086127571933   -1.280905770789    0.000000000000
