12

 C    0.464580464268    1.901992716030    0.000000000000
 C    1.576922464268    0.882514716030    0.000000000000
 O    1.072591464268   -0.383938283970    0.000000000000
 C    2.087057464268   -1.417677283970    0.000000000000
 O    2.774562464268    1.127007716030    0.000000000000
 H    0.897150464268    2.909002716030    0.000000000000
 H   -0.167756535732    1.759420716030    0.888615000000
 H   -0.167756535732    1.759420716030   -0.888615000000
 H    1.532960464268   -2.362801283970    0.000000000000
 H    2.716852464268   -1.331378283970    0.896190000000
 H    2.716852464268   -1.331378283970   -0.896190000000
NA   -5.161636633708   -1.291903053337    0.000000000000
