12

 C    0.488027404048    1.905407572679    0.000000000000
 C    1.600369404048    0.885929572679    0.000000000000
 O    1.096038404048   -0.380523427321    0.000000000000
 C    2.110504404048   -1.414262427321    0.000000000000
 O    2.798009404048    1.130422572679    0.000000000000
 H    0.920597404048    2.912417572679    0.000000000000
 H   -0.144309595952    1.762835572679    0.888615000000
 H   -0.144309595952    1.762835572679   -0.888615000000
 H    1.556407404048   -2.359386427321    0.000000000000
 H    2.740299404048   -1.327963427321    0.896190000000
 H    2.740299404048   -1.327963427321   -0.896190000000
NA   -5.237145695482   -1.302900335884    0.000000000000
