12

 C    0.534921283610    1.912237285976    0.000000000000
 C    1.647263283610    0.892759285976    0.000000000000
 O    1.142932283610   -0.373693714024    0.000000000000
 C    2.157398283610   -1.407432714024    0.000000000000
 O    2.844903283610    1.137252285976    0.000000000000
 H    0.967491283610    2.919247285976    0.000000000000
 H   -0.097415716390    1.769665285976    0.888615000000
 H   -0.097415716390    1.769665285976   -0.888615000000
 H    1.603301283610   -2.352556714024    0.000000000000
 H    2.787193283610   -1.321133714024    0.896190000000
 H    2.787193283610   -1.321133714024   -0.896190000000
NA   -5.388163819032   -1.324894900979    0.000000000000
