12

 C    0.558368223390    1.915652142625    0.000000000000
 C    1.670710223390    0.896174142625    0.000000000000
 O    1.166379223390   -0.370278857375    0.000000000000
 C    2.180845223390   -1.404017857375    0.000000000000
 O    2.868350223390    1.140667142625    0.000000000000
 H    0.990938223390    2.922662142625    0.000000000000
 H   -0.073968776610    1.773080142625    0.888615000000
 H   -0.073968776610    1.773080142625   -0.888615000000
 H    1.626748223390   -2.349141857375    0.000000000000
 H    2.810640223390   -1.317718857375    0.896190000000
 H    2.810640223390   -1.317718857375   -0.896190000000
NA   -5.463672880806   -1.335892183527    0.000000000000
