12

 C    0.652155982512    1.929311569220    0.000000000000
 C    1.764497982512    0.909833569220    0.000000000000
 O    1.260166982512   -0.356619430780    0.000000000000
 C    2.274632982512   -1.390358430780    0.000000000000
 O    2.962137982512    1.154326569220    0.000000000000
 H    1.084725982512    2.936321569220    0.000000000000
 H    0.019818982512    1.786739569220    0.888615000000
 H    0.019818982512    1.786739569220   -0.888615000000
 H    1.720535982512   -2.335482430780    0.000000000000
 H    2.904427982512   -1.304059430780    0.896190000000
 H    2.904427982512   -1.304059430780   -0.896190000000
NA   -5.765709127905   -1.379881313717    0.000000000000
