12

 C    0.816284560976    1.953215565761    0.000000000000
 C    1.928626560976    0.933737565761    0.000000000000
 O    1.424295560976   -0.332715434239    0.000000000000
 C    2.438761560976   -1.366454434239    0.000000000000
 O    3.126266560976    1.178230565761    0.000000000000
 H    1.248854560976    2.960225565761    0.000000000000
 H    0.183947560976    1.810643565761    0.888615000000
 H    0.183947560976    1.810643565761   -0.888615000000
 H    1.884664560976   -2.311578434239    0.000000000000
 H    3.068556560976   -1.280155434239    0.896190000000
 H    3.068556560976   -1.280155434239   -0.896190000000
NA   -6.294272560327   -1.456862291550    0.000000000000
