12

 C    0.933519259879    1.970289849005    0.000000000000
 C    2.045861259879    0.950811849005    0.000000000000
 O    1.541530259879   -0.315641150995    0.000000000000
 C    2.555996259879   -1.349380150995    0.000000000000
 O    3.243501259879    1.195304849005    0.000000000000
 H    1.366089259879    2.977299849005    0.000000000000
 H    0.301182259879    1.827717849005    0.888615000000
 H    0.301182259879    1.827717849005   -0.888615000000
 H    2.001899259879   -2.294504150995    0.000000000000
 H    3.185791259879   -1.263081150995    0.896190000000
 H    3.185791259879   -1.263081150995   -0.896190000000
NA   -6.671817869200   -1.511848704288    0.000000000000
