12

 C    0.980413139440    1.977119562302    0.000000000000
 C    2.092755139440    0.957641562302    0.000000000000
 O    1.588424139440   -0.308811437698    0.000000000000
 C    2.602890139440   -1.342550437698    0.000000000000
 O    3.290395139440    1.202134562302    0.000000000000
 H    1.412983139440    2.984129562302    0.000000000000
 H    0.348076139440    1.834547562302    0.888615000000
 H    0.348076139440    1.834547562302   -0.888615000000
 H    2.048793139440   -2.287674437698    0.000000000000
 H    3.232685139440   -1.256251437698    0.896190000000
 H    3.232685139440   -1.256251437698   -0.896190000000
NA   -6.822835992750   -1.533843269383    0.000000000000
