12

 C    1.003860079220    1.980534418951    0.000000000000
 C    2.116202079220    0.961056418951    0.000000000000
 O    1.611871079220   -0.305396581049    0.000000000000
 C    2.626337079220   -1.339135581049    0.000000000000
 O    3.313842079220    1.205549418951    0.000000000000
 H    1.436430079220    2.987544418951    0.000000000000
 H    0.371523079220    1.837962418951    0.888615000000
 H    0.371523079220    1.837962418951   -0.888615000000
 H    2.072240079220   -2.284259581049    0.000000000000
 H    3.256132079220   -1.252836581049    0.896190000000
 H    3.256132079220   -1.252836581049   -0.896190000000
NA   -6.898345054524   -1.544840551930    0.000000000000
