12

 C    1.050753958781    1.987364132249    0.000000000000
 C    2.163095958781    0.967886132249    0.000000000000
 O    1.658764958781   -0.298566867751    0.000000000000
 C    2.673230958781   -1.332305867751    0.000000000000
 O    3.360735958781    1.212379132249    0.000000000000
 H    1.483323958781    2.994374132249    0.000000000000
 H    0.418416958781    1.844792132249    0.888615000000
 H    0.418416958781    1.844792132249   -0.888615000000
 H    2.119133958781   -2.277429867751    0.000000000000
 H    3.303025958781   -1.246006867751    0.896190000000
 H    3.303025958781   -1.246006867751   -0.896190000000
NA   -7.049363178074   -1.566835117025    0.000000000000
