12

 C    1.074200898562    1.990778988897    0.000000000000
 C    2.186542898562    0.971300988897    0.000000000000
 O    1.682211898562   -0.295152011103    0.000000000000
 C    2.696677898562   -1.328891011103    0.000000000000
 O    3.384182898562    1.215793988897    0.000000000000
 H    1.506770898562    2.997788988897    0.000000000000
 H    0.441863898562    1.848206988897    0.888615000000
 H    0.441863898562    1.848206988897   -0.888615000000
 H    2.142580898562   -2.274015011103    0.000000000000
 H    3.326472898562   -1.242592011103    0.896190000000
 H    3.326472898562   -1.242592011103   -0.896190000000
NA   -7.124872239848   -1.577832399573    0.000000000000
