12

 C    1.261776416806    2.018097842087    0.000000000000
 C    2.374118416806    0.998619842087    0.000000000000
 O    1.869787416806   -0.267833157913    0.000000000000
 C    2.884253416806   -1.301572157913    0.000000000000
 O    3.571758416806    1.243112842087    0.000000000000
 H    1.694346416806    3.025107842087    0.000000000000
 H    0.629439416806    1.875525842087    0.888615000000
 H    0.629439416806    1.875525842087   -0.888615000000
 H    2.330156416806   -2.246696157913    0.000000000000
 H    3.514048416806   -1.215273157913    0.896190000000
 H    3.514048416806   -1.215273157913   -0.896190000000
NA   -7.728944734045   -1.665810659953    0.000000000000
