12

 C    1.308670296367    2.024927555385    0.000000000000
 C    2.421012296367    1.005449555385    0.000000000000
 O    1.916681296367   -0.261003444615    0.000000000000
 C    2.931147296367   -1.294742444615    0.000000000000
 O    3.618652296367    1.249942555385    0.000000000000
 H    1.741240296367    3.031937555385    0.000000000000
 H    0.676333296367    1.882355555385    0.888615000000
 H    0.676333296367    1.882355555385   -0.888615000000
 H    2.377050296367   -2.239866444615    0.000000000000
 H    3.560942296367   -1.208443444615    0.896190000000
 H    3.560942296367   -1.208443444615   -0.896190000000
NA   -7.879962857595   -1.687805225048    0.000000000000
