16

 N   -1.517771066568    2.759992663145    0.071894814871
 C   -0.147155654159    2.959467340986    0.068263180495
 H    0.174628642179    4.003212271862    0.089681996188
 C   -2.117486335997    1.506877503592    0.047364824215
 O   -3.335260367529    1.339934797525    0.048360904989
 N   -1.192180320386    0.470099893750    0.019708287226
 H   -1.586754028249   -0.468414416099   -0.000800586172
 C    0.213550058009    0.556138606068    0.011260236435
 O    0.901870730437   -0.467478615734   -0.016847702118
 C    0.743319239074    1.924527474802    0.039866605569
 C    2.235609132680    2.108385800264    0.035035795743
 H    2.497156761760    3.176813677132    0.057689963890
 H    2.675753446270    1.650065580842   -0.864072455703
 H    2.686614339389    1.609899314958    0.906972632656
 H   -2.160077289897    3.544245701319    0.091790233161
CS    0.462092418457   -1.365425038305   -0.033796404261
