16

 N   -1.472627756189    2.852166999516    0.073634601714
 C   -0.102012343780    3.051641677357    0.070002967338
 H    0.219771952558    4.095386608233    0.091421783031
 C   -2.072343025618    1.599051839963    0.049104611058
 O   -3.290117057150    1.432109133896    0.050100691832
 N   -1.147037010007    0.562274230121    0.021448074069
 H   -1.541610717870   -0.376240079728    0.000939200671
 C    0.258693368388    0.648312942439    0.013000023278
 O    0.947014040816   -0.375304279363   -0.015107915275
 C    0.788462549453    2.016701811173    0.041606392412
 C    2.280752443059    2.200560136635    0.036775582586
 H    2.542300072139    3.268988013503    0.059429750733
 H    2.720896756649    1.742239917213   -0.862332668860
 H    2.731757649768    1.702073651329    0.908712419499
 H   -2.114933979518    3.636420037690    0.093530020004
CS    0.419280066439   -1.452839986448   -0.035446357846
