16

 N   -1.450056101000    2.898254167701    0.074504495136
 C   -0.079440688591    3.097728845542    0.070872860760
 H    0.242343607747    4.141473776418    0.092291676453
 C   -2.049771370429    1.645139008148    0.049974504480
 O   -3.267545401961    1.478196302081    0.050970585254
 N   -1.124465354818    0.608361398306    0.022317967491
 H   -1.519039062681   -0.330152911543    0.001809094093
 C    0.281265023577    0.694400110624    0.013869916700
 O    0.969585696005   -0.329217111178   -0.014238021853
 C    0.811034204642    2.062788979358    0.042476285834
 C    2.303324098248    2.246647304820    0.037645476008
 H    2.564871727328    3.315075181688    0.060299644155
 H    2.743468411838    1.788327085398   -0.861462775438
 H    2.754329304957    1.748160819514    0.909582312921
 H   -2.092362324329    3.682507205875    0.094399913426
CS    0.397873890430   -1.496547460520   -0.036271334639
