16

 N   -1.427484445811    2.944341335886    0.075374388558
 C   -0.056869033402    3.143816013727    0.071742754182
 H    0.264915262936    4.187560944603    0.093161569875
 C   -2.027199715240    1.691226176333    0.050844397902
 O   -3.244973746772    1.524283470266    0.051840478676
 N   -1.101893699629    0.654448566491    0.023187860913
 H   -1.496467407492   -0.284065743358    0.002678987515
 C    0.303836678766    0.740487278809    0.014739810122
 O    0.992157351194   -0.283129942993   -0.013368128431
 C    0.833605859831    2.108876147543    0.043346179256
 C    2.325895753437    2.292734473005    0.038515369430
 H    2.587443382517    3.361162349873    0.061169537577
 H    2.766040067027    1.834414253583   -0.860592882016
 H    2.776900960146    1.794247987699    0.910452206343
 H   -2.069790669140    3.728594374060    0.095269806848
CS    0.376467714421   -1.540254934591   -0.037096311431
