16

 N   -1.404912790622    2.990428504072    0.076244281980
 C   -0.034297378213    3.189903181913    0.072612647604
 H    0.287486918125    4.233648112789    0.094031463297
 C   -2.004628060051    1.737313344519    0.051714291324
 O   -3.222402091583    1.570370638452    0.052710372098
 N   -1.079322044440    0.700535734677    0.024057754335
 H   -1.473895752303   -0.237978575172    0.003548880937
 C    0.326408333955    0.786574446995    0.015609703544
 O    1.014729006383   -0.237042774807   -0.012498235009
 C    0.856177515020    2.154963315729    0.044216072678
 C    2.348467408626    2.338821641191    0.039385262852
 H    2.610015037706    3.407249518059    0.062039430999
 H    2.788611722216    1.880501421769   -0.859722988594
 H    2.799472615335    1.840335155885    0.911322099765
 H   -2.047219013951    3.774681542246    0.096139700270
CS    0.355061538412   -1.583962408663   -0.037921288223
