16

 N   -1.359769480244    3.082602840442    0.077984068824
 C    0.010845932165    3.282077518283    0.074352434448
 H    0.332630228503    4.325822449159    0.095771250141
 C   -1.959484749673    1.829487680889    0.053454078168
 O   -3.177258781205    1.662544974822    0.054450158942
 N   -1.034178734062    0.792710071047    0.025797541179
 H   -1.428752441925   -0.145804238802    0.005288667781
 C    0.371551644333    0.878748783365    0.017349490388
 O    1.059872316761   -0.144868438437   -0.010758448165
 C    0.901320825398    2.247137652099    0.045955859522
 C    2.393610719004    2.430995977561    0.041125049696
 H    2.655158348084    3.499423854429    0.063779217843
 H    2.833755032594    1.972675758139   -0.857983201750
 H    2.844615925713    1.932509492255    0.913061886609
 H   -2.002075703573    3.866855878616    0.097879487114
CS    0.312249186394   -1.671377356806   -0.039571241808
