16

 N   -1.337197825055    3.128690008628    0.078853962246
 C    0.033417587354    3.328164686469    0.075222327870
 H    0.355201883692    4.371909617345    0.096641143563
 C   -1.936913094484    1.875574849075    0.054323971590
 O   -3.154687126016    1.708632143008    0.055320052364
 N   -1.011607078873    0.838797239233    0.026667434601
 H   -1.406180786736   -0.099717070616    0.006158561203
 C    0.394123299522    0.924835951551    0.018219383810
 O    1.082443971950   -0.098781270251   -0.009888554743
 C    0.923892480587    2.293224820285    0.046825752944
 C    2.416182374193    2.477083145747    0.041994943118
 H    2.677730003273    3.545511022615    0.064649111265
 H    2.856326687783    2.018762926325   -0.857113308328
 H    2.867187580902    1.978596660441    0.913931780031
 H   -1.979504048384    3.912943046802    0.098749380536
CS    0.290843010385   -1.715084830878   -0.040396218601
