16

 N   -1.314626169866    3.174777176813    0.079723855668
 C    0.055989242543    3.374251854654    0.076092221292
 H    0.377773538881    4.417996785530    0.097511036985
 C   -1.914341439295    1.921662017260    0.055193865012
 O   -3.132115470827    1.754719311193    0.056189945786
 N   -0.989035423684    0.884884407418    0.027537328023
 H   -1.383609131547   -0.053629902431    0.007028454625
 C    0.416694954711    0.970923119736    0.019089277232
 O    1.105015627139   -0.052694102066   -0.009018661321
 C    0.946464135776    2.339311988470    0.047695646366
 C    2.438754029382    2.523170313932    0.042864836540
 H    2.700301658462    3.591598190800    0.065519004687
 H    2.878898342972    2.064850094510   -0.856243414906
 H    2.889759236091    2.024683828626    0.914801673453
 H   -1.956932393195    3.959030214987    0.099619273958
CS    0.269436834376   -1.758792304950   -0.041221195393
