16

 N    0.513677900451    6.907837799829    0.150185222839
 C    1.884293312860    7.107312477670    0.146553588463
 H    2.206077609198    8.151057408546    0.167972404156
 C   -0.086037368978    5.654722640276    0.125655232183
 O   -1.303811400510    5.487779934209    0.126651312957
 N    0.839268646633    4.617945030434    0.097998695194
 H    0.444694938770    3.679430720585    0.077489821796
 C    2.244999025028    4.703983742752    0.089550644403
 O    2.933319697456    3.680366520950    0.061442705850
 C    2.774768206093    6.072372611486    0.118157013537
 C    4.267058099699    6.256230936948    0.113326203711
 H    4.528605728779    7.324658813816    0.135980371858
 H    4.707202413289    5.797910717526   -0.785782047735
 H    4.718063306408    5.757744451642    0.985263040624
 H   -0.128628322878    7.692090838003    0.170080641129
CS   -1.464463422352   -5.299097704754   -0.108044315579
