16

 N   -1.269482859487    3.266951513184    0.081463642511
 C    0.101132552922    3.466426191025    0.077832008135
 H    0.422916849260    4.510171121901    0.099250823828
 C   -1.869198128916    2.013836353631    0.056933651855
 O   -3.086972160448    1.846893647564    0.057929732629
 N   -0.943892113305    0.977058743789    0.029277114866
 H   -1.338465821168    0.038544433940    0.008768241468
 C    0.461838265090    1.063097456107    0.020829064075
 O    1.150158937518    0.039480234305   -0.007278874478
 C    0.991607446155    2.431486324841    0.049435433209
 C    2.483897339761    2.615344650303    0.044604623383
 H    2.745444968841    3.683772527171    0.067258791530
 H    2.924041653351    2.157024430881   -0.854503628063
 H    2.934902546470    2.116858164997    0.916541460296
 H   -1.911789082816    4.051204551358    0.101359060801
CS    0.226624482358   -1.846207253093   -0.042871148978
