16

 N   -1.246911204298    3.313038681369    0.082333535933
 C    0.123704208111    3.512513359210    0.078701901557
 H    0.445488504449    4.556258290086    0.100120717250
 C   -1.846626473727    2.059923521816    0.057803545277
 O   -3.064400505259    1.892980815749    0.058799626051
 N   -0.921320458116    1.023145911974    0.030147008288
 H   -1.315894165979    0.084631602125    0.009638134890
 C    0.484409920279    1.109184624292    0.021698957497
 O    1.172730592707    0.085567402490   -0.006408981056
 C    1.014179101344    2.477573493026    0.050305326631
 C    2.506468994950    2.661431818488    0.045474516805
 H    2.768016624030    3.729859695356    0.068128684952
 H    2.946613308540    2.203111599066   -0.853633734641
 H    2.957474201659    2.162945333182    0.917411353718
 H   -1.889217427627    4.097291719543    0.102228954223
CS    0.205218306349   -1.889914727165   -0.043696125770
