16

 N   -1.134052928353    3.543474522296    0.086683003042
 C    0.236562484056    3.742949200137    0.083051368666
 H    0.558346780394    4.786694131013    0.104470184359
 C   -1.733768197782    2.290359362743    0.062153012386
 O   -2.951542229314    2.123416656676    0.063149093160
 N   -0.808462182171    1.253581752901    0.034496475397
 H   -1.203035890034    0.315067443052    0.013987601999
 C    0.597268196224    1.339620465219    0.026048424606
 O    1.285588868652    0.316003243417   -0.002059513947
 C    1.127037377289    2.708009333953    0.054654793740
 C    2.619327270895    2.891867659415    0.049823983914
 H    2.880874899975    3.960295536283    0.072478152061
 H    3.059471584485    2.433547439993   -0.849284267532
 H    3.070332477604    2.393381174109    0.921760820827
 H   -1.776359151682    4.327727560470    0.106578421332
CS    0.098187426304   -2.108452097523   -0.047821009732
