16

 N   -1.111481273164    3.589561690482    0.087552896464
 C    0.259134139245    3.789036368323    0.083921262088
 H    0.580918435583    4.832781299199    0.105340077781
 C   -1.711196542593    2.336446530929    0.063022905808
 O   -2.928970574125    2.169503824862    0.064018986582
 N   -0.785890526982    1.299668921087    0.035366368819
 H   -1.180464234845    0.361154611238    0.014857495421
 C    0.619839851413    1.385707633405    0.026918318028
 O    1.308160523841    0.362090411603   -0.001189620525
 C    1.149609032478    2.754096502139    0.055524687162
 C    2.641898926084    2.937954827601    0.050693877336
 H    2.903446555164    4.006382704469    0.073348045483
 H    3.082043239674    2.479634608179   -0.848414374110
 H    3.092904132793    2.439468342295    0.922630714249
 H   -1.753787496493    4.373814728656    0.107448314754
CS    0.076781250295   -2.152159571595   -0.048645986525
