16

 N   -1.088909617975    3.635648858667    0.088422789886
 C    0.281705794434    3.835123536508    0.084791155510
 H    0.603490090772    4.878868467384    0.106209971203
 C   -1.688624887404    2.382533699114    0.063892799230
 O   -2.906398918936    2.215590993047    0.064888880004
 N   -0.763318871793    1.345756089272    0.036236262241
 H   -1.157892579656    0.407241779423    0.015727388843
 C    0.642411506602    1.431794801590    0.027788211450
 O    1.330732179030    0.408177579788   -0.000319727103
 C    1.172180687667    2.800183670324    0.056394580584
 C    2.664470581273    2.984041995786    0.051563770758
 H    2.926018210353    4.052469872654    0.074217938905
 H    3.104614894863    2.525721776364   -0.847544480688
 H    3.115475787982    2.485555510480    0.923500607671
 H   -1.731215841304    4.419901896841    0.108318208176
CS    0.055375074286   -2.195867045666   -0.049470963317
