16

 N   -1.043766307597    3.727823195038    0.090162576730
 C    0.326849104812    3.927297872879    0.086530942354
 H    0.648633401150    4.971042803755    0.107949758047
 C   -1.643481577026    2.474708035485    0.065632586074
 O   -2.861255608558    2.307765329418    0.066628666848
 N   -0.718175561415    1.437930425643    0.037976049085
 H   -1.112749269278    0.499416115794    0.017467175687
 C    0.687554816980    1.523969137961    0.029527998294
 O    1.375875489408    0.500351916159    0.001420059741
 C    1.217323998045    2.892358006695    0.058134367428
 C    2.709613891651    3.076216332157    0.053303557602
 H    2.971161520731    4.144644209025    0.075957725749
 H    3.149758205241    2.617896112735   -0.845804693844
 H    3.160619098360    2.577729846851    0.925240394515
 H   -1.686072530926    4.512076233212    0.110057995020
CS    0.012562722268   -2.283281993810   -0.051120916902
