16

 N   -1.021194652407    3.773910363223    0.091032470152
 C    0.349420760002    3.973385041064    0.087400835776
 H    0.671205056340    5.017129971940    0.108819651469
 C   -1.620909921836    2.520795203670    0.066502479496
 O   -2.838683953368    2.353852497603    0.067498560270
 N   -0.695603906225    1.484017593828    0.038845942507
 H   -1.090177614088    0.545503283979    0.018337069109
 C    0.710126472170    1.570056306146    0.030397891716
 O    1.398447144598    0.546439084344    0.002289953163
 C    1.239895653235    2.938445174880    0.059004260850
 C    2.732185546841    3.122303500342    0.054173451024
 H    2.993733175921    4.190731377210    0.076827619171
 H    3.172329860431    2.663983280920   -0.844934800422
 H    3.183190753550    2.623817015036    0.926110287937
 H   -1.663500875736    4.558163401397    0.110927888442
CS   -0.008843453741   -2.326989467881   -0.051945893695
