16

 N   -0.998622997218    3.819997531408    0.091902363574
 C    0.371992415191    4.019472209249    0.088270729198
 H    0.693776711529    5.063217140125    0.109689544891
 C   -1.598338266647    2.566882371855    0.067372372918
 O   -2.816112298179    2.399939665788    0.068368453692
 N   -0.673032251036    1.530104762013    0.039715835929
 H   -1.067605958899    0.591590452164    0.019206962531
 C    0.732698127359    1.616143474331    0.031267785138
 O    1.421018799787    0.592526252529    0.003159846585
 C    1.262467308424    2.984532343065    0.059874154272
 C    2.754757202030    3.168390668527    0.055043344446
 H    3.016304831110    4.236818545395    0.077697512593
 H    3.194901515620    2.710070449105   -0.844064907000
 H    3.205762408739    2.669904183221    0.926980181359
 H   -1.640929220547    4.604250569582    0.111797781864
CS   -0.030249629750   -2.370696941953   -0.052770870487
