16

 N   -0.976051342029    3.866084699594    0.092772256996
 C    0.394564070380    4.065559377435    0.089140622620
 H    0.716348366718    5.109304308311    0.110559438313
 C   -1.575766611458    2.612969540041    0.068242266340
 O   -2.793540642990    2.446026833974    0.069238347114
 N   -0.650460595847    1.576191930199    0.040585729351
 H   -1.045034303710    0.637677620350    0.020076855953
 C    0.755269782548    1.662230642517    0.032137678560
 O    1.443590454976    0.638613420715    0.004029740007
 C    1.285038963613    3.030619511251    0.060744047694
 C    2.777328857219    3.214477836713    0.055913237868
 H    3.038876486299    4.282905713581    0.078567406015
 H    3.217473170809    2.756157617291   -0.843195013578
 H    3.228334063928    2.715991351407    0.927850074781
 H   -1.618357565358    4.650337737768    0.112667675286
CS   -0.051655805759   -2.414404416025   -0.053595847279
