16

 N   -0.863193066084    4.096520540521    0.097121724105
 C    0.507422346325    4.295995218362    0.093490089729
 H    0.829206642663    5.339740149238    0.114908905422
 C   -1.462908335513    2.843405380968    0.072591733449
 O   -2.680682367045    2.676462674901    0.073587814223
 N   -0.537602319902    1.806627771126    0.044935196460
 H   -0.932176027765    0.868113461277    0.024426323062
 C    0.868128058493    1.892666483444    0.036487145669
 O    1.556448730921    0.869049261642    0.008379207116
 C    1.397897239558    3.261055352178    0.065093514803
 C    2.890187133164    3.444913677640    0.060262704977
 H    3.151734762244    4.513341554508    0.082916873124
 H    3.330331446754    2.986593458218   -0.838845546469
 H    3.341192339873    2.946427192334    0.932199541890
 H   -1.505499289413    4.880773578695    0.117017142395
CS   -0.158686685804   -2.632941786383   -0.057720731242
