16

 N   -0.840621410895    4.142607708706    0.097991617527
 C    0.529994001514    4.342082386547    0.094359983151
 H    0.851778297852    5.385827317423    0.115778798844
 C   -1.440336680324    2.889492549153    0.073461626871
 O   -2.658110711856    2.722549843086    0.074457707645
 N   -0.515030664713    1.852714939311    0.045805089882
 H   -0.909604372576    0.914200629462    0.025296216484
 C    0.890699713682    1.938753651629    0.037357039091
 O    1.579020386110    0.915136429827    0.009249100538
 C    1.420468894747    3.307142520363    0.065963408225
 C    2.912758788353    3.491000845825    0.061132598399
 H    3.174306417433    4.559428722693    0.083786766546
 H    3.352903101943    3.032680626403   -0.837975653047
 H    3.363763995062    2.992514360519    0.933069435312
 H   -1.482927634224    4.926860746880    0.117887035817
CS   -0.180092861813   -2.676649260455   -0.058545708034
