16

 N   -0.818049755706    4.188694876892    0.098861510949
 C    0.552565656703    4.388169554733    0.095229876573
 H    0.874349953041    5.431914485609    0.116648692266
 C   -1.417765025135    2.935579717339    0.074331520293
 O   -2.635539056667    2.768637011272    0.075327601067
 N   -0.492459009524    1.898802107497    0.046674983304
 H   -0.887032717387    0.960287797648    0.026166109906
 C    0.913271368871    1.984840819815    0.038226932513
 O    1.601592041299    0.961223598013    0.010118993960
 C    1.443040549936    3.353229688549    0.066833301647
 C    2.935330443542    3.537088014011    0.062002491821
 H    3.196878072622    4.605515890879    0.084656659968
 H    3.375474757132    3.078767794589   -0.837105759625
 H    3.386335650251    3.038601528705    0.933939328734
 H   -1.460355979035    4.972947915066    0.118756929239
CS   -0.201499037822   -2.720356734526   -0.059370684826
