16

 N   -0.772906445327    4.280869213262    0.100601297792
 C    0.597708967082    4.480343891103    0.096969663416
 H    0.919493263420    5.524088821979    0.118388479109
 C   -1.372621714756    3.027754053709    0.076071307136
 O   -2.590395746288    2.860811347642    0.077067387910
 N   -0.447315699145    1.990976443867    0.048414770147
 H   -0.841889407008    1.052462134018    0.027905896749
 C    0.958414679250    2.077015156185    0.039966719356
 O    1.646735351678    1.053397934383    0.011858780803
 C    1.488183860315    3.445404024919    0.068573088490
 C    2.980473753921    3.629262350381    0.063742278664
 H    3.242021383001    4.697690227249    0.086396446811
 H    3.420618067511    3.170942130959   -0.835365972782
 H    3.431478960630    3.130775865075    0.935679115577
 H   -1.415212668656    5.065122251436    0.120496716082
CS   -0.244311389840   -2.807771682670   -0.061020638411
