16

 N   -0.569761548626    4.695653726931    0.108430338589
 C    0.800853863783    4.895128404772    0.104798704213
 H    1.122638160121    5.938873335648    0.126217519906
 C   -1.169476818055    3.442538567378    0.083900347933
 O   -2.387250849587    3.275595861311    0.084896428707
 N   -0.244170802444    2.405760957536    0.056243810944
 H   -0.638744510307    1.467246647687    0.035734937546
 C    1.161559575951    2.491799669854    0.047795760153
 O    1.849880248379    1.468182448052    0.019687821600
 C    1.691328757016    3.860188538588    0.076402129287
 C    3.183618650622    4.044046864050    0.071571319461
 H    3.445166279702    5.112474740918    0.094225487608
 H    3.623762964212    3.585726644628   -0.827536931985
 H    3.634623857331    3.545560378744    0.943508156374
 H   -1.212067771955    5.479906765105    0.128325756879
CS   -0.436966973921   -3.201138949314   -0.068445429543
