16

 N   -0.502046583058    4.833915231487    0.111040018855
 C    0.868568829351    5.033389909328    0.107408384479
 H    1.190353125689    6.077134840204    0.128827200172
 C   -1.101761852487    3.580800071934    0.086510028199
 O   -2.319535884019    3.413857365867    0.087506108973
 N   -0.176455836876    2.544022462092    0.058853491210
 H   -0.571029544739    1.605508152243    0.038344617812
 C    1.229274541519    2.630061174410    0.050405440419
 O    1.917595213947    1.606443952608    0.022297501866
 C    1.759043722584    3.998450043144    0.079011809553
 C    3.251333616190    4.182308368606    0.074180999727
 H    3.512881245270    5.250736245474    0.096835167874
 H    3.691477929780    3.723988149184   -0.824927251719
 H    3.702338822899    3.683821883300    0.946117836640
 H   -1.144352806387    5.618168269661    0.130935437145
CS   -0.501185501948   -3.332261371529   -0.070920359920
