16

 N   -0.411759962302    5.018263904228    0.114519592542
 C    0.958855450107    5.217738582069    0.110887958166
 H    1.280639746445    6.261483512945    0.132306773859
 C   -1.011475231731    3.765148744675    0.089989601886
 O   -2.229249263263    3.598206038608    0.090985682660
 N   -0.086169216120    2.728371134833    0.062333064897
 H   -0.480742923983    1.789856824984    0.041824191499
 C    1.319561162275    2.814409847151    0.053885014106
 O    2.007881834703    1.790792625349    0.025777075553
 C    1.849330343340    4.182798715885    0.082491383240
 C    3.341620236946    4.366657041347    0.077660573414
 H    3.603167866026    5.435084918215    0.100314741561
 H    3.781764550536    3.908336821925   -0.821447678032
 H    3.792625443655    3.868170556041    0.949597410327
 H   -1.054066185631    5.802516942402    0.134415010832
CS   -0.586810205984   -3.507091267816   -0.074220267090
