16

 N   -0.389188307113    5.064351072414    0.115389485964
 C    0.981427105296    5.263825750255    0.111757851588
 H    1.303211401634    6.307570681131    0.133176667281
 C   -0.988903576542    3.811235912861    0.090859495308
 O   -2.206677608074    3.644293206794    0.091855576082
 N   -0.063597560931    2.774458303019    0.063202958319
 H   -0.458171268794    1.835943993170    0.042694084921
 C    1.342132817464    2.860497015337    0.054754907528
 O    2.030453489892    1.836879793535    0.026646968975
 C    1.871901998529    4.228885884071    0.083361276662
 C    3.364191892135    4.412744209533    0.078530466836
 H    3.625739521215    5.481172086401    0.101184634983
 H    3.804336205725    3.954423990111   -0.820577784610
 H    3.815197098844    3.914257724227    0.950467303749
 H   -1.031494530442    5.848604110588    0.135284904254
CS   -0.608216381993   -3.550798741888   -0.075045243882
