16

 N   -0.366616651924    5.110438240599    0.116259379386
 C    1.003998760485    5.309912918440    0.112627745010
 H    1.325783056823    6.353657849316    0.134046560703
 C   -0.966331921353    3.857323081046    0.091729388730
 O   -2.184105952885    3.690380374979    0.092725469504
 N   -0.041025905742    2.820545471204    0.064072851741
 H   -0.435599613605    1.882031161355    0.043563978343
 C    1.364704472653    2.906584183522    0.055624800950
 O    2.053025145081    1.882966961720    0.027516862397
 C    1.894473653718    4.274973052256    0.084231170084
 C    3.386763547324    4.458831377718    0.079400360258
 H    3.648311176404    5.527259254586    0.102054528405
 H    3.826907860914    4.000511158296   -0.819707891188
 H    3.837768754033    3.960344892412    0.951337197171
 H   -1.008922875253    5.894691278773    0.136154797676
CS   -0.629622558002   -3.594506215959   -0.075870220675
