16

 N   -0.298901686356    5.248699745155    0.118869059652
 C    1.071713726053    5.448174422996    0.115237425276
 H    1.393498022391    6.491919353872    0.136656240969
 C   -0.898616955785    3.995584585602    0.094339068996
 O   -2.116390987317    3.828641879535    0.095335149770
 N    0.026689059826    2.958806975760    0.066682532007
 H   -0.367884648037    2.020292665911    0.046173658609
 C    1.432419438221    3.044845688078    0.058234481216
 O    2.120740110649    2.021228466276    0.030126542663
 C    1.962188619286    4.413234556812    0.086840850350
 C    3.454478512892    4.597092882274    0.082010040524
 H    3.716026141972    5.665520759142    0.104664208671
 H    3.894622826482    4.138772662852   -0.817098210922
 H    3.905483719601    4.098606396968    0.953946877437
 H   -0.941207909685    6.032952783329    0.138764477942
CS   -0.693841086028   -3.725628638174   -0.078345151052
