16

 N   -0.276330031167    5.294786913341    0.119738953074
 C    1.094285381242    5.494261591182    0.116107318698
 H    1.416069677580    6.538006522058    0.137526134391
 C   -0.876045300596    4.041671753788    0.095208962418
 O   -2.093819332128    3.874729047721    0.096205043192
 N    0.049260715015    3.004894143946    0.067552425429
 H   -0.345312992848    2.066379834097    0.047043552031
 C    1.454991093410    3.090932856264    0.059104374638
 O    2.143311765838    2.067315634462    0.030996436085
 C    1.984760274475    4.459321724998    0.087710743772
 C    3.477050168081    4.643180050460    0.082879933946
 H    3.738597797161    5.711607927328    0.105534102093
 H    3.917194481671    4.184859831038   -0.816228317500
 H    3.928055374790    4.144693565154    0.954816770859
 H   -0.918636254496    6.079039951515    0.139634371364
CS   -0.715247262037   -3.769336112246   -0.079170127845
