16

 N   -0.253758375978    5.340874081526    0.120608846495
 C    1.116857036431    5.540348759367    0.116977212119
 H    1.438641332769    6.584093690243    0.138396027812
 C   -0.853473645407    4.087758921973    0.096078855839
 O   -2.071247676939    3.920816215906    0.097074936613
 N    0.071832370204    3.050981312131    0.068422318850
 H   -0.322741337659    2.112467002282    0.047913445452
 C    1.477562748599    3.137020024449    0.059974268059
 O    2.165883421027    2.113402802647    0.031866329506
 C    2.007331929664    4.505408893183    0.088580637193
 C    3.499621823270    4.689267218645    0.083749827367
 H    3.761169452350    5.757695095513    0.106403995514
 H    3.939766136860    4.230946999223   -0.815358424079
 H    3.950627029979    4.190780733339    0.955686664280
 H   -0.896064599307    6.125127119700    0.140504264785
CS   -0.736653438046   -3.813043586318   -0.079995104637
