16

 N   -0.163471755222    5.525222754267    0.124088420183
 C    1.207143657187    5.724697432108    0.120456785807
 H    1.528927953525    6.768442362984    0.141875601500
 C   -0.763187024651    4.272107594714    0.099558429527
 O   -1.980961056183    4.105164888647    0.100554510301
 N    0.162118990960    3.235329984872    0.071901892538
 H   -0.232454716903    2.296815675023    0.051393019140
 C    1.567849369355    3.321368697190    0.063453841747
 O    2.256170041783    2.297751475388    0.035345903194
 C    2.097618550420    4.689757565924    0.092060210881
 C    3.589908444026    4.873615891386    0.087229401055
 H    3.851456073106    5.942043768254    0.109883569202
 H    4.030052757616    4.415295671964   -0.811878850391
 H    4.040913650735    4.375129406080    0.959166237968
 H   -0.805777978551    6.309475792441    0.143983838473
CS   -0.822278142082   -3.987873482604   -0.083295011807
