16

 N   -0.140900100033    5.571309922453    0.124958313605
 C    1.229715312376    5.770784600294    0.121326679229
 H    1.551499608714    6.814529531170    0.142745494922
 C   -0.740615369462    4.318194762900    0.100428322949
 O   -1.958389400994    4.151252056833    0.101424403723
 N    0.184690646149    3.281417153058    0.072771785960
 H   -0.209883061714    2.342902843209    0.052262912562
 C    1.590421024544    3.367455865376    0.064323735169
 O    2.278741696972    2.343838643574    0.036215796616
 C    2.120190205609    4.735844734110    0.092930104303
 C    3.612480099215    4.919703059572    0.088099294477
 H    3.874027728295    5.988130936440    0.110753462624
 H    4.052624412805    4.461382840150   -0.811008956969
 H    4.063485305924    4.421216574266    0.960036131390
 H   -0.783206323362    6.355562960627    0.144853731895
CS   -0.843684318091   -4.031580956676   -0.084119988599
