16

 N   -0.118328444844    5.617397090638    0.125828207027
 C    1.252286967565    5.816871768479    0.122196572651
 H    1.574071263903    6.860616699355    0.143615388344
 C   -0.718043714273    4.364281931085    0.101298216371
 O   -1.935817745805    4.197339225018    0.102294297145
 N    0.207262301338    3.327504321243    0.073641679382
 H   -0.187311406525    2.388990011394    0.053132805984
 C    1.612992679733    3.413543033561    0.065193628591
 O    2.301313352161    2.389925811759    0.037085690038
 C    2.142761860798    4.781931902295    0.093799997725
 C    3.635051754404    4.965790227757    0.088969187899
 H    3.896599383484    6.034218104625    0.111623356046
 H    4.075196067994    4.507470008335   -0.810139063547
 H    4.086056961113    4.467303742451    0.960906024812
 H   -0.760634668173    6.401650128812    0.145723625317
CS   -0.865090494100   -4.075288430748   -0.084944965392
