16

 N   -0.095756789655    5.663484258824    0.126698100449
 C    1.274858622754    5.862958936665    0.123066466073
 H    1.596642919092    6.906703867541    0.144485281766
 C   -0.695472059084    4.410369099271    0.102168109793
 O   -1.913246090616    4.243426393204    0.103164190567
 N    0.229833956527    3.373591489429    0.074511572804
 H   -0.164739751336    2.435077179580    0.054002699406
 C    1.635564334922    3.459630201747    0.066063522013
 O    2.323885007350    2.436012979945    0.037955583460
 C    2.165333515987    4.828019070481    0.094669891147
 C    3.657623409593    5.011877395943    0.089839081321
 H    3.919171038673    6.080305272811    0.112493249468
 H    4.097767723183    4.553557176521   -0.809269170125
 H    4.108628616302    4.513390910637    0.961775918234
 H   -0.738063012984    6.447737296998    0.146593518739
CS   -0.886496670109   -4.118995904819   -0.085769942184
