16

 N   -0.028041824087    5.801745763380    0.129307780714
 C    1.342573588322    6.001220441221    0.125676146338
 H    1.664357884660    7.044965372097    0.147094962031
 C   -0.627757093516    4.548630603827    0.104777790058
 O   -1.845531125048    4.381687897760    0.105773870832
 N    0.297548922095    3.511852993985    0.077121253069
 H   -0.097024785768    2.573338684136    0.056612379671
 C    1.703279300490    3.597891706303    0.068673202278
 O    2.391599972918    2.574274484501    0.040565263725
 C    2.233048481555    4.966280575037    0.097279571412
 C    3.725338375161    5.150138900499    0.092448761586
 H    3.986886004241    6.218566777367    0.115102929733
 H    4.165482688751    4.691818681077   -0.806659489860
 H    4.176343581870    4.651652415193    0.964385598499
 H   -0.670348047416    6.585998801554    0.149203199004
CS   -0.950715198136   -4.250118327034   -0.088244872561
