16

 N   -0.005470168898    5.847832931565    0.130177674136
 C    1.365145243511    6.047307609406    0.126546039760
 H    1.686929539849    7.091052540282    0.147964855453
 C   -0.605185438327    4.594717772012    0.105647683480
 O   -1.822959469859    4.427775065945    0.106643764254
 N    0.320120577284    3.557940162170    0.077991146491
 H   -0.074453130579    2.619425852321    0.057482273093
 C    1.725850955679    3.643978874488    0.069543095700
 O    2.414171628107    2.620361652686    0.041435157147
 C    2.255620136744    5.012367743222    0.098149464834
 C    3.747910030350    5.196226068684    0.093318655008
 H    4.009457659430    6.264653945552    0.115972823155
 H    4.188054343940    4.737905849262   -0.805789596438
 H    4.198915237059    4.697739583378    0.965255491921
 H   -0.647776392227    6.632085969739    0.150073092426
CS   -0.972121374145   -4.293825801106   -0.089069849354
