16

 N    0.017101486291    5.893920099750    0.131047567558
 C    1.387716898700    6.093394777591    0.127415933182
 H    1.709501195038    7.137139708467    0.148834748875
 C   -0.582613783138    4.640804940197    0.106517576902
 O   -1.800387814670    4.473862234130    0.107513657676
 N    0.342692232473    3.604027330355    0.078861039913
 H   -0.051881475390    2.665513020506    0.058352166515
 C    1.748422610868    3.690066042673    0.070412989122
 O    2.436743283296    2.666448820871    0.042305050569
 C    2.278191791933    5.058454911407    0.099019358256
 C    3.770481685539    5.242313236869    0.094188548430
 H    4.032029314619    6.310741113737    0.116842716577
 H    4.210625999129    4.783993017447   -0.804919703016
 H    4.221486892248    4.743826751563    0.966125385343
 H   -0.625204737038    6.678173137924    0.150942985848
CS   -0.993527550154   -4.337533275178   -0.089894826146
