16

 N    0.062244796669    5.986094436121    0.132787354402
 C    1.432860209078    6.185569113962    0.129155720026
 H    1.754644505416    7.229314044838    0.150574535719
 C   -0.537470472760    4.732979276568    0.108257363746
 O   -1.755244504292    4.566036570501    0.109253444520
 N    0.387835542851    3.696201666726    0.080600826757
 H   -0.006738165012    2.757687356877    0.060091953359
 C    1.793565921246    3.782240379044    0.072152775966
 O    2.481886593674    2.758623157242    0.044044837413
 C    2.323335102311    5.150629247778    0.100759145100
 C    3.815624995917    5.334487573240    0.095928335274
 H    4.077172624997    6.402915450108    0.118582503421
 H    4.255769309507    4.876167353818   -0.803179916172
 H    4.266630202626    4.836001087934    0.967865172187
 H   -0.580061426660    6.770347474295    0.152682772692
CS   -1.036339902172   -4.424948223321   -0.091544779731
