16

 N    0.129959762236    6.124355940677    0.135397034667
 C    1.500575174645    6.323830618518    0.131765400291
 H    1.822359470983    7.367575549394    0.153184215984
 C   -0.469755507193    4.871240781124    0.110867044011
 O   -1.687529538725    4.704298075057    0.111863124785
 N    0.455550508418    3.834463171282    0.083210507022
 H    0.060976800555    2.895948861433    0.062701633624
 C    1.861280886813    3.920501883600    0.074762456231
 O    2.549601559241    2.896884661798    0.046654517678
 C    2.391050067878    5.288890752334    0.103368825365
 C    3.883339961484    5.472749077796    0.098538015539
 H    4.144887590564    6.541176954664    0.121192183686
 H    4.323484275074    5.014428858374   -0.800570235907
 H    4.334345168193    4.974262592490    0.970474852452
 H   -0.512346461093    6.908608978851    0.155292452957
CS   -1.100558430199   -4.556070645536   -0.094019710108
