16

 N    0.152531417425    6.170443108863    0.136266928089
 C    1.523146829834    6.369917786704    0.132635293713
 H    1.844931126172    7.413662717580    0.154054109406
 C   -0.447183852004    4.917327949310    0.111736937433
 O   -1.664957883536    4.750385243243    0.112733018207
 N    0.478122163607    3.880550339468    0.084080400444
 H    0.083548455744    2.942036029619    0.063571527046
 C    1.883852542002    3.966589051786    0.075632349653
 O    2.572173214430    2.942971829984    0.047524411100
 C    2.413621723067    5.334977920520    0.104238718787
 C    3.905911616673    5.518836245982    0.099407908961
 H    4.167459245753    6.587264122850    0.122062077108
 H    4.346055930263    5.060516026560   -0.799700342485
 H    4.356916823382    5.020349760676    0.971344745874
 H   -0.489774805904    6.954696147037    0.156162346379
CS   -1.121964606208   -4.599778119608   -0.094844686901
