16

 N    0.175103072615    6.216530277048    0.137136821511
 C    1.545718485024    6.416004954889    0.133505187135
 H    1.867502781362    7.459749885765    0.154924002828
 C   -0.424612196814    4.963415117495    0.112606830855
 O   -1.642386228346    4.796472411428    0.113602911629
 N    0.500693818797    3.926637507653    0.084950293866
 H    0.106120110934    2.988123197804    0.064441420468
 C    1.906424197192    4.012676219971    0.076502243075
 O    2.594744869620    2.989058998169    0.048394304522
 C    2.436193378257    5.381065088705    0.105108612209
 C    3.928483271863    5.564923414167    0.100277802383
 H    4.190030900943    6.633351291035    0.122931970530
 H    4.368627585453    5.106603194745   -0.798830449063
 H    4.379488478572    5.066436928861    0.972214639296
 H   -0.467203150714    7.000783315222    0.157032239801
CS   -1.143370782217   -4.643485593679   -0.095669663693
