16

 N    0.197674727804    6.262617445233    0.138006714933
 C    1.568290140213    6.462092123074    0.134375080557
 H    1.890074436551    7.505837053950    0.155793896250
 C   -0.402040541625    5.009502285680    0.113476724277
 O   -1.619814573157    4.842559579613    0.114472805051
 N    0.523265473986    3.972724675838    0.085820187288
 H    0.128691766123    3.034210365989    0.065311313890
 C    1.928995852381    4.058763388156    0.077372136497
 O    2.617316524809    3.035146166354    0.049264197944
 C    2.458765033446    5.427152256890    0.105978505631
 C    3.951054927052    5.611010582352    0.101147695805
 H    4.212602556132    6.679438459220    0.123801863952
 H    4.391199240642    5.152690362930   -0.797960555641
 H    4.402060133761    5.112524097046    0.973084532718
 H   -0.444631495525    7.046870483407    0.157902133223
CS   -1.164776958226   -4.687193067751   -0.096494640486
