16

 N    0.242818038182    6.354791781604    0.139746501777
 C    1.613433450591    6.554266459445    0.136114867401
 H    1.935217746929    7.598011390321    0.157533683094
 C   -0.356897231247    5.101676622051    0.115216511121
 O   -1.574671262779    4.934733915984    0.116212591895
 N    0.568408784364    4.064899012209    0.087559974132
 H    0.173835076501    3.126384702360    0.067051100734
 C    1.974139162759    4.150937724527    0.079111923341
 O    2.662459835187    3.127320502725    0.051003984788
 C    2.503908343824    5.519326593261    0.107718292475
 C    3.996198237430    5.703184918723    0.102887482649
 H    4.257745866510    6.771612795591    0.125541650796
 H    4.436342551020    5.244864699301   -0.796220768797
 H    4.447203444139    5.204698433417    0.974824319562
 H   -0.399488185147    7.139044819778    0.159641920067
CS   -1.207589310244   -4.774608015894   -0.098144594070
