16

 N    0.310533003749    6.493053286160    0.142356182042
 C    1.681148416158    6.692527964001    0.138724547666
 H    2.002932712496    7.736272894877    0.160143363359
 C   -0.289182265680    5.239938126607    0.117826191386
 O   -1.506956297212    5.072995420540    0.118822272160
 N    0.636123749931    4.203160516765    0.090169654397
 H    0.241550042068    3.264646206916    0.069660780999
 C    2.041854128326    4.289199229083    0.081721603606
 O    2.730174800754    3.265582007281    0.053613665053
 C    2.571623309391    5.657588097817    0.110327972740
 C    4.063913202997    5.841446423279    0.105497162914
 H    4.325460832077    6.909874300147    0.128151331061
 H    4.504057516587    5.383126203857   -0.793611088532
 H    4.514918409706    5.342959937973    0.977433999827
 H   -0.331773219580    7.277306324334    0.162251600332
CS   -1.271807838271   -4.905730438109   -0.100619524448
