16

 N    0.333104658938    6.539140454346    0.143226075464
 C    1.703720071347    6.738615132187    0.139594441088
 H    2.025504367685    7.782360063063    0.161013256781
 C   -0.266610610491    5.286025294793    0.118696084808
 O   -1.484384642023    5.119082588726    0.119692165582
 N    0.658695405120    4.249247684951    0.091039547819
 H    0.264121697257    3.310733375102    0.070530674421
 C    2.064425783515    4.335286397269    0.082591497028
 O    2.752746455943    3.311669175467    0.054483558475
 C    2.594194964580    5.703675266003    0.111197866162
 C    4.086484858186    5.887533591465    0.106367056336
 H    4.348032487266    6.955961468333    0.129021224483
 H    4.526629171776    5.429213372043   -0.792741195110
 H    4.537490064895    5.389047106159    0.978303893249
 H   -0.309201564391    7.323393492520    0.163121493754
CS   -1.293214014280   -4.949437912181   -0.101444501240
