16

 N    0.423391279695    6.723489127087    0.146705649152
 C    1.794006692104    6.922963804928    0.143074014776
 H    2.115790988442    7.966708735804    0.164492830469
 C   -0.176323989734    5.470373967534    0.122175658496
 O   -1.394098021266    5.303431261467    0.123171739270
 N    0.748982025877    4.433596357692    0.094519121507
 H    0.354408318014    3.495082047843    0.074010248109
 C    2.154712404272    4.519635070010    0.086071070716
 O    2.843033076700    3.496017848208    0.057963132163
 C    2.684481585337    5.888023938744    0.114677439850
 C    4.176771478943    6.071882264206    0.109846630024
 H    4.438319108023    7.140310141074    0.132500798171
 H    4.616915792533    5.613562044784   -0.789261621422
 H    4.627776685652    5.573395778900    0.981783466937
 H   -0.218914943634    7.507742165261    0.166601067442
CS   -1.378838718316   -5.124267808468   -0.104744408410
