10

 H   -1.272920981983   -1.460001810081   -1.318805510846
 H   -0.371444981983   -0.257787810081   -2.294052510846
 H    0.530031018017   -1.460001810081   -1.318805510846
 C   -0.371444981983   -0.829152810081   -1.354333510846
 S   -0.371444981983    0.368722189919    0.018204489154
 C   -0.371444981983   -0.829152810081    1.390742489154
 H    0.530031018017   -1.460001810081    1.355214489154
 H   -0.371444981983   -0.257787810081    2.330461489154
 H   -1.272920981983   -1.460001810081    1.355214489154
NA    1.002039385084    0.631418726539   -0.049109870915
