10

 H   -1.299452766410   -1.465076354827   -1.317505190193
 H   -0.397976766410   -0.262862354827   -2.292752190193
 H    0.503499233590   -1.465076354827   -1.317505190193
 C   -0.397976766410   -0.834227354827   -1.353033190193
 S   -0.397976766410    0.363647645173    0.019504809807
 C   -0.397976766410   -0.834227354827    1.392042809807
 H    0.503499233590   -1.465076354827    1.356514809807
 H   -0.397976766410   -0.262862354827    2.331761809807
 H   -1.299452766410   -1.465076354827    1.356514809807
NA    1.073613626875    0.645108220123   -0.052617718837
