10

 H   -1.405579904120   -1.485374533814   -1.312303907577
 H   -0.504103904120   -0.283160533814   -2.287550907577
 H    0.397372095880   -1.485374533814   -1.312303907577
 C   -0.504103904120   -0.854525533814   -1.347831907577
 S   -0.504103904120    0.343349466186    0.024706092423
 C   -0.504103904120   -0.854525533814    1.397244092423
 H    0.397372095880   -1.485374533814    1.361716092423
 H   -0.504103904120   -0.283160533814    2.336963092423
 H   -1.405579904120   -1.485374533814    1.361716092423
NA    1.359910594042    0.699866194457   -0.066649110527
