10

 H   -1.538238826256   -1.510747257547   -1.305802304308
 H   -0.636762826256   -0.308533257547   -2.281049304308
 H    0.264713173744   -1.510747257547   -1.305802304308
 C   -0.636762826256   -0.879898257547   -1.341330304308
 S   -0.636762826256    0.317976742453    0.031207695692
 C   -0.636762826256   -0.879898257547    1.403745695692
 H    0.264713173744   -1.510747257547    1.368217695692
 H   -0.636762826256   -0.308533257547    2.343464695692
 H   -1.538238826256   -1.510747257547    1.368217695692
NA    1.717781803001    0.768313662374   -0.084188350140
