10

 H   -1.617834179538   -1.525970891787   -1.301901342347
 H   -0.716358179538   -0.323756891787   -2.277148342347
 H    0.185117820462   -1.525970891787   -1.301901342347
 C   -0.716358179538   -0.895121891787   -1.337429342347
 S   -0.716358179538    0.302753108213    0.035108657653
 C   -0.716358179538   -0.895121891787    1.407646657653
 H    0.185117820462   -1.525970891787    1.372118657653
 H   -0.716358179538   -0.323756891787    2.347365657653
 H   -1.617834179538   -1.525970891787    1.372118657653
NA    1.932504528376    0.809382143124   -0.094711893907
