10

 H   -1.777024886103   -1.556418160266   -1.294099418424
 H   -0.875548886103   -0.354204160266   -2.269346418424
 H    0.025927113897   -1.556418160266   -1.294099418424
 C   -0.875548886103   -0.925569160266   -1.329627418424
 S   -0.875548886103    0.272305839734    0.042910581576
 C   -0.875548886103   -0.925569160266    1.415448581576
 H    0.025927113897   -1.556418160266    1.379920581576
 H   -0.875548886103   -0.354204160266    2.355167581576
 H   -1.777024886103   -1.556418160266    1.379920581576
NA    2.361949979126    0.891519104625   -0.115758981442
