10

 H   -1.883152023812   -1.576716339252   -1.288898135809
 H   -0.981676023812   -0.374502339252   -2.264145135809
 H   -0.080200023812   -1.576716339252   -1.288898135809
 C   -0.981676023812   -0.945867339252   -1.324426135809
 S   -0.981676023812    0.252007660748    0.048111864191
 C   -0.981676023812   -0.945867339252    1.420649864191
 H   -0.080200023812   -1.576716339252    1.385121864191
 H   -0.981676023812   -0.374502339252    2.360368864191
 H   -1.883152023812   -1.576716339252    1.385121864191
NA    2.648246946293    0.946277078958   -0.129790373132
