10

 H   -1.909683808239   -1.581790883999   -1.287597815155
 H   -1.008207808239   -0.379576883999   -2.262844815155
 H   -0.106731808239   -1.581790883999   -1.287597815155
 C   -1.008207808239   -0.950941883999   -1.323125815155
 S   -1.008207808239    0.246933116001    0.049412184845
 C   -1.008207808239   -0.950941883999    1.421950184845
 H   -0.106731808239   -1.581790883999    1.386422184845
 H   -1.008207808239   -0.379576883999    2.361669184845
 H   -1.909683808239   -1.581790883999    1.386422184845
NA    2.719821188084    0.959966572542   -0.133298221055
