10

 H   -2.042342730376   -1.607163607732   -1.281096211886
 H   -1.140866730376   -0.404949607732   -2.256343211886
 H   -0.239390730376   -1.607163607732   -1.281096211886
 C   -1.140866730376   -0.976314607732   -1.316624211886
 S   -1.140866730376    0.221560392268    0.055913788114
 C   -1.140866730376   -0.976314607732    1.428451788114
 H   -0.239390730376   -1.607163607732    1.392923788114
 H   -1.140866730376   -0.404949607732    2.368170788114
 H   -2.042342730376   -1.607163607732    1.392923788114
NA    3.077692397043    1.028414040459   -0.150837460667
