10

 H   -2.095406299231   -1.617312697225   -1.278495570578
 H   -1.193930299231   -0.415098697225   -2.253742570578
 H   -0.292454299231   -1.617312697225   -1.278495570578
 C   -1.193930299231   -0.986463697225   -1.314023570578
 S   -1.193930299231    0.211411302775    0.058514429422
 C   -1.193930299231   -0.986463697225    1.431052429422
 H   -0.292454299231   -1.617312697225    1.395524429422
 H   -1.193930299231   -0.415098697225    2.370771429422
 H   -2.095406299231   -1.617312697225    1.395524429422
NA    3.220840880626    1.055793027626   -0.157853156512
