10

 H   -2.121938083658   -1.622387241972   -1.277195249924
 H   -1.220462083658   -0.420173241972   -2.252442249924
 H   -0.318986083658   -1.622387241972   -1.277195249924
 C   -1.220462083658   -0.991538241972   -1.312723249924
 S   -1.220462083658    0.206336758028    0.059814750076
 C   -1.220462083658   -0.991538241972    1.432352750076
 H   -0.318986083658   -1.622387241972    1.396824750076
 H   -1.220462083658   -0.420173241972    2.372071750076
 H   -2.121938083658   -1.622387241972    1.396824750076
NA    3.292415122418    1.069482521209   -0.161361004435
