10

 H   -2.413787712359   -1.678207234184   -1.262891722732
 H   -1.512311712359   -0.475993234184   -2.238138722732
 H   -0.610835712359   -1.678207234184   -1.262891722732
 C   -1.512311712359   -1.047358234184   -1.298419722732
 S   -1.512311712359    0.150516765816    0.074118277268
 C   -1.512311712359   -1.047358234184    1.446656277268
 H   -0.610835712359   -1.678207234184    1.411128277268
 H   -1.512311712359   -0.475993234184    2.386375277268
 H   -2.413787712359   -1.678207234184    1.411128277268
NA    4.079731782126    1.220066950627   -0.199947331582
