10

 H   -2.440319496786   -1.683281778931   -1.261591402078
 H   -1.538843496786   -0.481067778931   -2.236838402078
 H   -0.637367496786   -1.683281778931   -1.261591402078
 C   -1.538843496786   -1.052432778931   -1.297119402078
 S   -1.538843496786    0.145442221069    0.075418597922
 C   -1.538843496786   -1.052432778931    1.447956597922
 H   -0.637367496786   -1.683281778931    1.412428597922
 H   -1.538843496786   -0.481067778931    2.387675597922
 H   -2.440319496786   -1.683281778931    1.412428597922
NA    4.151306023918    1.233756444211   -0.203455179504
