10

 H   -2.493383065641   -1.693430868424   -1.258990760771
 H   -1.591907065641   -0.491216868424   -2.234237760771
 H   -0.690431065641   -1.693430868424   -1.258990760771
 C   -1.591907065641   -1.062581868424   -1.294518760771
 S   -1.591907065641    0.135293131576    0.078019239229
 C   -1.591907065641   -1.062581868424    1.450557239229
 H   -0.690431065641   -1.693430868424    1.415029239229
 H   -1.591907065641   -0.491216868424    2.390276239229
 H   -2.493383065641   -1.693430868424    1.415029239229
NA    4.294454507502    1.261135431377   -0.210470875349
