10

 H   -2.626041987778   -1.718803592157   -1.252489157502
 H   -1.724565987778   -0.516589592157   -2.227736157502
 H   -0.823089987778   -1.718803592157   -1.252489157502
 C   -1.724565987778   -1.087954592157   -1.288017157502
 S   -1.724565987778    0.109920407843    0.084520842498
 C   -1.724565987778   -1.087954592157    1.457058842498
 H   -0.823089987778   -1.718803592157    1.421530842498
 H   -1.724565987778   -0.516589592157    2.396777842498
 H   -2.626041987778   -1.718803592157    1.421530842498
NA    4.652325716460    1.329582899295   -0.228010114962
