10

 H   -2.679105556632   -1.728952681650   -1.249888516194
 H   -1.777629556632   -0.526738681650   -2.225135516194
 H   -0.876153556632   -1.728952681650   -1.249888516194
 C   -1.777629556632   -1.098103681650   -1.285416516194
 S   -1.777629556632    0.099771318350    0.087121483806
 C   -1.777629556632   -1.098103681650    1.459659483806
 H   -0.876153556632   -1.728952681650    1.424131483806
 H   -1.777629556632   -0.526738681650    2.399378483806
 H   -2.679105556632   -1.728952681650    1.424131483806
NA    4.795474200043    1.356961886461   -0.235025810807
