10

 H   -2.785232694342   -1.749250860637   -1.244687233579
 H   -1.883756694342   -0.547036860637   -2.219934233579
 H   -0.982280694342   -1.749250860637   -1.244687233579
 C   -1.883756694342   -1.118401860637   -1.280215233579
 S   -1.883756694342    0.079473139363    0.092322766421
 C   -1.883756694342   -1.118401860637    1.464860766421
 H   -0.982280694342   -1.749250860637    1.429332766421
 H   -1.883756694342   -0.547036860637    2.404579766421
 H   -2.785232694342   -1.749250860637    1.429332766421
NA    5.081771167210    1.411719860795   -0.249057202497
