10

 H   -2.891359832051   -1.769549039623   -1.239485950963
 H   -1.989883832051   -0.567335039623   -2.214732950963
 H   -1.088407832051   -1.769549039623   -1.239485950963
 C   -1.989883832051   -1.138700039623   -1.275013950963
 S   -1.989883832051    0.059174960377    0.097524049037
 C   -1.989883832051   -1.138700039623    1.470062049037
 H   -1.088407832051   -1.769549039623    1.434534049037
 H   -1.989883832051   -0.567335039623    2.409781049037
 H   -2.891359832051   -1.769549039623    1.434534049037
NA    5.368068134377    1.466477835129   -0.263088594187
