10

 H   -2.970955185333   -1.784772673863   -1.235584989002
 H   -2.069479185333   -0.582558673863   -2.210831989002
 H   -1.168003185333   -1.784772673863   -1.235584989002
 C   -2.069479185333   -1.153923673863   -1.271112989002
 S   -2.069479185333    0.043951326137    0.101425010998
 C   -2.069479185333   -1.153923673863    1.473963010998
 H   -1.168003185333   -1.784772673863    1.438435010998
 H   -2.069479185333   -0.582558673863    2.413682010998
 H   -2.970955185333   -1.784772673863    1.438435010998
NA    5.582790859752    1.507546315879   -0.273612137954
