10

 H   -3.024018754188   -1.794921763356   -1.232984347694
 H   -2.122542754188   -0.592707763356   -2.208231347694
 H   -1.221066754188   -1.794921763356   -1.232984347694
 C   -2.122542754188   -1.164072763356   -1.268512347694
 S   -2.122542754188    0.033802236644    0.104025652306
 C   -2.122542754188   -1.164072763356    1.476563652306
 H   -1.221066754188   -1.794921763356    1.441035652306
 H   -2.122542754188   -0.592707763356    2.416282652306
 H   -3.024018754188   -1.794921763356    1.441035652306
NA    5.725939343335    1.534925303046   -0.280627833799
