10

 H   -3.077082323043   -1.805070852849   -1.230383706387
 H   -2.175606323043   -0.602856852849   -2.205630706387
 H   -1.274130323043   -1.805070852849   -1.230383706387
 C   -2.175606323043   -1.174221852849   -1.265911706387
 S   -2.175606323043    0.023653147151    0.106626293613
 C   -2.175606323043   -1.174221852849    1.479164293613
 H   -1.274130323043   -1.805070852849    1.443636293613
 H   -2.175606323043   -0.602856852849    2.418883293613
 H   -3.077082323043   -1.805070852849    1.443636293613
NA    5.869087826919    1.562304290213   -0.287643529644
