10

 H   -3.183209460752   -1.825369031835   -1.225182423771
 H   -2.281733460752   -0.623155031835   -2.200429423771
 H   -1.380257460752   -1.825369031835   -1.225182423771
 C   -2.281733460752   -1.194520031835   -1.260710423771
 S   -2.281733460752    0.003354968165    0.111827576229
 C   -2.281733460752   -1.194520031835    1.484365576229
 H   -1.380257460752   -1.825369031835    1.448837576229
 H   -2.281733460752   -0.623155031835    2.424084576229
 H   -3.183209460752   -1.825369031835    1.448837576229
NA    6.155384794086    1.617062264547   -0.301674921334
