10

 H   -3.289336598461   -1.845667210822   -1.219981141156
 H   -2.387860598461   -0.643453210822   -2.195228141156
 H   -1.486384598461   -1.845667210822   -1.219981141156
 C   -2.387860598461   -1.214818210822   -1.255509141156
 S   -2.387860598461   -0.016943210822    0.117028858844
 C   -2.387860598461   -1.214818210822    1.489566858844
 H   -1.486384598461   -1.845667210822    1.454038858844
 H   -2.387860598461   -0.643453210822    2.429285858844
 H   -3.289336598461   -1.845667210822    1.454038858844
NA    6.441681761252    1.671820238880   -0.315706313024
