10

 H   -3.342400167316   -1.855816300315   -1.217380499848
 H   -2.440924167316   -0.653602300315   -2.192627499848
 H   -1.539448167316   -1.855816300315   -1.217380499848
 C   -2.440924167316   -1.224967300315   -1.252908499848
 S   -2.440924167316   -0.027092300315    0.119629500152
 C   -2.440924167316   -1.224967300315    1.492167500152
 H   -1.539448167316   -1.855816300315    1.456639500152
 H   -2.440924167316   -0.653602300315    2.431886500152
 H   -3.342400167316   -1.855816300315    1.456639500152
NA    6.584830244836    1.699199226047   -0.322722008869
