10

 H   -3.475059089453   -1.881189024048   -1.210878896579
 H   -2.573583089453   -0.678975024048   -2.186125896579
 H   -1.672107089453   -1.881189024048   -1.210878896579
 C   -2.573583089453   -1.250340024048   -1.246406896579
 S   -2.573583089453   -0.052465024048    0.126131103421
 C   -2.573583089453   -1.250340024048    1.498669103421
 H   -1.672107089453   -1.881189024048    1.463141103421
 H   -2.573583089453   -0.678975024048    2.438388103421
 H   -3.475059089453   -1.881189024048    1.463141103421
NA    6.942701453794    1.767646693965   -0.340261248481
