16

 N   -2.544319396308   -0.063018078076    0.157953794316
 C   -1.312193664041   -0.693308358084    0.158908754624
 N   -1.042052727915   -2.014193833052    0.155444565677
 C    0.286076440548   -2.232387725802    0.171011994340
 H    0.599884723518   -3.279066458292    0.174391565031
 N    1.298425883589   -1.324406768661    0.184983264615
 C    0.986209139682   -0.013585685412    0.180336860715
 N    1.993836094484    0.910912951893    0.138515023784
 H    2.925287631871    0.580382843141    0.360972957917
 H    1.761098588457    1.870883706932    0.363325269224
 C   -0.379291701192    0.363108168455    0.171565773000
 N   -1.002821012383    1.602073869085    0.181443982018
 C   -2.302746499540    1.293994480724    0.172989128860
 H   -3.112800028327    2.020575281826    0.177037266723
 H   -3.448109073478   -0.523275201910    0.150350738383
NA    2.266616511435    1.181177060013   -0.998387855090
