16

 N   -2.554239336888   -0.072846510496    0.199298437492
 C   -1.322113604621   -0.703136790504    0.200253397800
 N   -1.051972668495   -2.024022265472    0.196789208853
 C    0.276156499968   -2.242216158222    0.212356637516
 H    0.589964782938   -3.288894890712    0.215736208207
 N    1.288505943009   -1.334235201081    0.226327907791
 C    0.976289199102   -0.023414117832    0.221681503891
 N    1.983916153904    0.901084519473    0.179859666960
 H    2.915367691291    0.570554410721    0.402317601093
 H    1.751178647877    1.861055274512    0.404669912400
 C   -0.389211641772    0.353279736035    0.212910416176
 N   -1.012740952963    1.592245436665    0.222788625194
 C   -2.312666440120    1.284166048304    0.214333772036
 H   -3.122719968907    2.010746849406    0.218381909899
 H   -3.458029014058   -0.533103634330    0.191695381559
NA    2.324891675092    1.238914654622   -1.241268931632
