16

 N   -2.557545983748   -0.076122654636    0.213079985217
 C   -1.325420251481   -0.706412934644    0.214034945525
 N   -1.055279315355   -2.027298409612    0.210570756578
 C    0.272849853108   -2.245492302362    0.226138185241
 H    0.586658136078   -3.292171034852    0.229517755932
 N    1.285199296149   -1.337511345221    0.240109455516
 C    0.972982552242   -0.026690261972    0.235463051616
 N    1.980609507044    0.897808375333    0.193641214685
 H    2.912061044431    0.567278266581    0.416099148818
 H    1.747872001017    1.857779130372    0.418451460125
 C   -0.392518288632    0.350003591895    0.226691963901
 N   -1.016047599823    1.588969292525    0.236570172919
 C   -2.315973086980    1.280889904164    0.228115319761
 H   -3.126026615767    2.007470705266    0.232163457624
 H   -3.461335660918   -0.536379778470    0.205476929284
NA    2.344316729645    1.258160519492   -1.322229290479
