16

 N   -2.570772571189   -0.089227231197    0.268206176119
 C   -1.338646838922   -0.719517511205    0.269161136427
 N   -1.068505902796   -2.040402986173    0.265696947480
 C    0.259623265667   -2.258596878923    0.281264376143
 H    0.573431548637   -3.305275611413    0.284643946834
 N    1.271972708708   -1.350615921782    0.295235646418
 C    0.959755964801   -0.039794838533    0.290589242518
 N    1.967382919603    0.884703798772    0.248767405587
 H    2.898834456990    0.554173690020    0.471225339720
 H    1.734645413576    1.844674553811    0.473577651027
 C   -0.405744876073    0.336899015334    0.281818154803
 N   -1.029274187264    1.575864715964    0.291696363821
 C   -2.329199674421    1.267785327603    0.283241510663
 H   -3.139253203208    1.994366128705    0.287289648526
 H   -3.474562248359   -0.549484355031    0.260603120186
NA    2.422016947854    1.335143978972   -1.646070725869
