16

 N   -2.574079218049   -0.092503375337    0.281987723844
 C   -1.341953485782   -0.722793655345    0.282942684152
 N   -1.071812549656   -2.043679130313    0.279478495205
 C    0.256316618807   -2.261873023063    0.295045923868
 H    0.570124901777   -3.308551755553    0.298425494559
 N    1.268666061848   -1.353892065922    0.309017194143
 C    0.956449317941   -0.043070982673    0.304370790243
 N    1.964076272743    0.881427654632    0.262548953312
 H    2.895527810130    0.550897545880    0.485006887445
 H    1.731338766716    1.841398409671    0.487359198752
 C   -0.409051522933    0.333622871194    0.295599702528
 N   -1.032580834124    1.572588571824    0.305477911546
 C   -2.332506321281    1.264509183463    0.297023058388
 H   -3.142559850068    1.991089984565    0.301071196251
 H   -3.477868895219   -0.552760499171    0.274384667911
NA    2.441442002407    1.354389843841   -1.727031084717
