16

 N   -2.577385864909   -0.095779519477    0.295769271569
 C   -1.345260132642   -0.726069799485    0.296724231877
 N   -1.075119196516   -2.046955274453    0.293260042930
 C    0.253009971947   -2.265149167203    0.308827471593
 H    0.566818254917   -3.311827899693    0.312207042284
 N    1.265359414988   -1.357168210062    0.322798741868
 C    0.953142671081   -0.046347126813    0.318152337968
 N    1.960769625883    0.878151510492    0.276330501037
 H    2.892221163270    0.547621401740    0.498788435170
 H    1.728032119856    1.838122265531    0.501140746477
 C   -0.412358169793    0.330346727054    0.309381250253
 N   -1.035887480984    1.569312427684    0.319259459271
 C   -2.335812968141    1.261233039323    0.310804606113
 H   -3.145866496928    1.987813840425    0.314852743976
 H   -3.481175542079   -0.556036643311    0.288166215636
NA    2.460867056959    1.373635708711   -1.807991443564
