16

 N   -2.587305805490   -0.105607951897    0.337113914745
 C   -1.355180073223   -0.735898231905    0.338068875053
 N   -1.085039137097   -2.056783706873    0.334604686106
 C    0.243090031366   -2.274977599623    0.350172114769
 H    0.556898314336   -3.321656332113    0.353551685460
 N    1.255439474407   -1.366996642482    0.364143385044
 C    0.943222730500   -0.056175559233    0.359496981144
 N    1.950849685302    0.868323078072    0.317675144213
 H    2.882301222689    0.537792969320    0.540133078346
 H    1.718112179275    1.828293833111    0.542485389653
 C   -0.422278110374    0.320518294634    0.350725893429
 N   -1.045807421565    1.559483995264    0.360604102447
 C   -2.345732908722    1.251404606903    0.352149249289
 H   -3.155786437509    1.977985408005    0.356197387152
 H   -3.491095482660   -0.565865075731    0.329510858812
NA    2.519142220616    1.431373303321   -2.050872520106
