16

 N   -2.593919099210   -0.112160240177    0.364677010196
 C   -1.361793366943   -0.742450520185    0.365631970504
 N   -1.091652430817   -2.063335995153    0.362167781557
 C    0.236476737646   -2.281529887903    0.377735210220
 H    0.550285020616   -3.328208620393    0.381114780911
 N    1.248826180687   -1.373548930762    0.391706480495
 C    0.936609436780   -0.062727847513    0.387060076595
 N    1.944236391582    0.861770789792    0.345238239664
 H    2.875687928969    0.531240681040    0.567696173797
 H    1.711498885555    1.821741544831    0.570048485104
 C   -0.428891404094    0.313966006354    0.378288988880
 N   -1.052420715285    1.552931706984    0.388167197898
 C   -2.352346202442    1.244852318623    0.379712344740
 H   -3.162399731229    1.971433119725    0.383760482603
 H   -3.497708776380   -0.572417364011    0.357073954263
NA    2.557992329721    1.469865033060   -2.212793237801
