16

 N   -2.597225746070   -0.115436384317    0.378458557921
 C   -1.365100013803   -0.745726664325    0.379413518229
 N   -1.094959077677   -2.066612139293    0.375949329282
 C    0.233170090786   -2.284806032043    0.391516757945
 H    0.546978373756   -3.331484764533    0.394896328636
 N    1.245519533827   -1.376825074902    0.405488028220
 C    0.933302789920   -0.066003991653    0.400841624320
 N    1.940929744722    0.858494645652    0.359019787389
 H    2.872381282109    0.527964536900    0.581477721522
 H    1.708192238695    1.818465400691    0.583830032829
 C   -0.432198050954    0.310689862214    0.392070536605
 N   -1.055727362145    1.549655562844    0.401948745623
 C   -2.355652849302    1.241576174483    0.393493892465
 H   -3.165706378089    1.968156975585    0.397542030328
 H   -3.501015423240   -0.575693508151    0.370855501988
NA    2.577417384273    1.489110897930   -2.293753596649
