16

 N   -2.603839039791   -0.121988672598    0.406021653372
 C   -1.371713307524   -0.752278952606    0.406976613680
 N   -1.101572371398   -2.073164427574    0.403512424733
 C    0.226556797065   -2.291358320324    0.419079853396
 H    0.540365080035   -3.338037052814    0.422459424087
 N    1.238906240106   -1.383377363183    0.433051123671
 C    0.926689496199   -0.072556279934    0.428404719771
 N    1.934316451001    0.851942357371    0.386582882840
 H    2.865767988388    0.521412248619    0.609040816973
 H    1.701578944974    1.811913112410    0.611393128280
 C   -0.438811344675    0.304137573933    0.419633632056
 N   -1.062340655866    1.543103274563    0.429511841074
 C   -2.362266143023    1.235023886202    0.421056987916
 H   -3.172319671810    1.961604687304    0.425105125779
 H   -3.507628716961   -0.582245796432    0.398418597439
NA    2.616267493378    1.527602627670   -2.455674314344
