16

 N   -2.610452333511   -0.128540960878    0.433584748823
 C   -1.378326601244   -0.758831240886    0.434539709131
 N   -1.108185665118   -2.079716715854    0.431075520184
 C    0.219943503345   -2.297910608604    0.446642948847
 H    0.533751786315   -3.344589341094    0.450022519538
 N    1.232292946386   -1.389929651463    0.460614219122
 C    0.920076202479   -0.079108568214    0.455967815222
 N    1.927703157281    0.845390069091    0.414145978291
 H    2.859154694668    0.514859960339    0.636603912424
 H    1.694965651254    1.805360824130    0.638956223731
 C   -0.445424638395    0.297585285653    0.447196727507
 N   -1.068953949586    1.536550986283    0.457074936525
 C   -2.368879436743    1.228471597922    0.448620083367
 H   -3.178932965530    1.955052399024    0.452668221230
 H   -3.514242010681   -0.588798084712    0.425981692890
NA    2.655117602483    1.566094357410   -2.617595032038
