16

 N   -2.613758980371   -0.131817105018    0.447366296548
 C   -1.381633248104   -0.762107385026    0.448321256856
 N   -1.111492311978   -2.082992859994    0.444857067909
 C    0.216636856485   -2.301186752744    0.460424496572
 H    0.530445139455   -3.347865485234    0.463804067263
 N    1.228986299526   -1.393205795603    0.474395766847
 C    0.916769555619   -0.082384712354    0.469749362947
 N    1.924396510421    0.842113924951    0.427927526016
 H    2.855848047808    0.511583816199    0.650385460149
 H    1.691659004394    1.802084679990    0.652737771456
 C   -0.448731285255    0.294309141513    0.460978275232
 N   -1.072260596446    1.533274842143    0.470856484250
 C   -2.372186083603    1.225195453782    0.462401631092
 H   -3.182239612390    1.951776254884    0.466449768955
 H   -3.517548657541   -0.592074228852    0.439763240615
NA    2.674542657035    1.585340222279   -2.698555390886
