16

 N   -2.617065627231   -0.135093249158    0.461147844273
 C   -1.384939894964   -0.765383529166    0.462102804581
 N   -1.114798958838   -2.086269004134    0.458638615634
 C    0.213330209625   -2.304462896884    0.474206044297
 H    0.527138492595   -3.351141629374    0.477585614988
 N    1.225679652666   -1.396481939743    0.488177314572
 C    0.913462908759   -0.085660856494    0.483530910672
 N    1.921089863561    0.838837780811    0.441709073741
 H    2.852541400948    0.508307672059    0.664167007874
 H    1.688352357534    1.798808535850    0.666519319181
 C   -0.452037932115    0.291032997373    0.474759822957
 N   -1.075567243306    1.529998698003    0.484638031975
 C   -2.375492730463    1.221919309642    0.476183178817
 H   -3.185546259250    1.948500110744    0.480231316680
 H   -3.520855304401   -0.595350372992    0.453544788340
NA    2.693967711588    1.604586087149   -2.779515749733
