16

 N   -2.633598861532   -0.151473969859    0.530055582900
 C   -1.401473129265   -0.781764249867    0.531010543208
 N   -1.131332193139   -2.102649724835    0.527546354261
 C    0.196796975324   -2.320843617585    0.543113782924
 H    0.510605258294   -3.367522350075    0.546493353615
 N    1.209146418365   -1.412862660444    0.557085053199
 C    0.896929674458   -0.102041577195    0.552438649299
 N    1.904556629260    0.822457060110    0.510616812368
 H    2.836008166647    0.491926951358    0.733074746501
 H    1.671819123233    1.782427815149    0.735427057808
 C   -0.468571166416    0.274652276672    0.543667561584
 N   -1.092100477607    1.513617977302    0.553545770602
 C   -2.392025964764    1.205538588941    0.545090917444
 H   -3.202079493551    1.932119390043    0.549139055307
 H   -3.537388538702   -0.611731093693    0.522452526967
NA    2.791092984349    1.700815411499   -3.184317543971
