16

 N   -2.636905508392   -0.154750113999    0.543837130625
 C   -1.404779776125   -0.785040394007    0.544792090933
 N   -1.134638839999   -2.105925868975    0.541327901986
 C    0.193490328464   -2.324119761725    0.556895330649
 H    0.507298611434   -3.370798494215    0.560274901340
 N    1.205839771505   -1.416138804584    0.570866600924
 C    0.893623027598   -0.105317721335    0.566220197024
 N    1.901249982400    0.819180915970    0.524398360093
 H    2.832701519787    0.488650807218    0.746856294226
 H    1.668512476373    1.779151671009    0.749208605533
 C   -0.471877813276    0.271376132532    0.557449109309
 N   -1.095407124467    1.510341833162    0.567327318327
 C   -2.395332611624    1.202262444801    0.558872465169
 H   -3.205386140411    1.928843245903    0.562920603032
 H   -3.540695185562   -0.615007237833    0.536234074692
NA    2.810518038902    1.720061276368   -3.265277902818
