16

 N   -2.643518802113   -0.161302402279    0.571400226076
 C   -1.411393069846   -0.791592682287    0.572355186384
 N   -1.141252133720   -2.112478157255    0.568890997437
 C    0.186877034743   -2.330672050005    0.584458426100
 H    0.500685317713   -3.377350782495    0.587837996791
 N    1.199226477784   -1.422691092864    0.598429696375
 C    0.887009733877   -0.111870009615    0.593783292475
 N    1.894636688679    0.812628627690    0.551961455544
 H    2.826088226066    0.482098518938    0.774419389677
 H    1.661899182652    1.772599382729    0.776771700984
 C   -0.478491106997    0.264823844252    0.585012204760
 N   -1.102020418188    1.503789544882    0.594890413778
 C   -2.401945905345    1.195710156521    0.586435560620
 H   -3.211999434132    1.922290957623    0.590483698483
 H   -3.547308479283   -0.621559526113    0.563797170143
NA    2.849368148007    1.758553006108   -3.427198620513
