16

 N   -2.650132095833   -0.167854690559    0.598963321527
 C   -1.418006363566   -0.798144970567    0.599918281835
 N   -1.147865427440   -2.119030445535    0.596454092888
 C    0.180263741023   -2.337224338285    0.612021521551
 H    0.494072023993   -3.383903070775    0.615401092242
 N    1.192613184064   -1.429243381144    0.625992791826
 C    0.880396440157   -0.118422297895    0.621346387926
 N    1.888023394959    0.806076339410    0.579524550995
 H    2.819474932346    0.475546230658    0.801982485128
 H    1.655285888932    1.766047094449    0.804334796435
 C   -0.485104400717    0.258271555972    0.612575300211
 N   -1.108633711908    1.497237256602    0.622453509229
 C   -2.408559199065    1.189157868241    0.613998656071
 H   -3.218612727852    1.915738669343    0.618046793934
 H   -3.553921773003   -0.628111814393    0.591360265594
NA    2.888218257111    1.797044735848   -3.589119338208
