16

 N   -2.656745389553   -0.174406978839    0.626526416977
 C   -1.424619657286   -0.804697258847    0.627481377285
 N   -1.154478721160   -2.125582733815    0.624017188338
 C    0.173650447303   -2.343776626565    0.639584617001
 H    0.487458730273   -3.390455359055    0.642964187692
 N    1.185999890344   -1.435795669424    0.653555887276
 C    0.873783146437   -0.124974586175    0.648909483376
 N    1.881410101239    0.799524051130    0.607087646445
 H    2.812861638626    0.468993942378    0.829545580578
 H    1.648672595212    1.759494806169    0.831897891885
 C   -0.491717694437    0.251719267692    0.640138395661
 N   -1.115247005628    1.490684968322    0.650016604679
 C   -2.415172492785    1.182605579961    0.641561751521
 H   -3.225226021572    1.909186381063    0.645609889384
 H   -3.560535066723   -0.634664102673    0.618923361044
NA    2.927068366216    1.835536465587   -3.751040055903
