16

 N   -2.660052036413   -0.177683122979    0.640307964703
 C   -1.427926304146   -0.807973402987    0.641262925011
 N   -1.157785368020   -2.128858877955    0.637798736064
 C    0.170343800443   -2.347052770705    0.653366164727
 H    0.484152083413   -3.393731503195    0.656745735418
 N    1.182693243484   -1.439071813564    0.667337435002
 C    0.870476499577   -0.128250730315    0.662691031102
 N    1.878103454379    0.796247906990    0.620869194171
 H    2.809554991766    0.465717798238    0.843327128304
 H    1.645365948352    1.756218662029    0.845679439611
 C   -0.495024341297    0.248443123552    0.653919943387
 N   -1.118553652488    1.487408824182    0.663798152405
 C   -2.418479139645    1.179329435821    0.655343299247
 H   -3.228532668432    1.905910236923    0.659391437110
 H   -3.563841713583   -0.637940246813    0.632704908770
NA    2.946493420768    1.854782330457   -3.832000414750
