16

 N   -2.683198564435   -0.200616131960    0.736778798780
 C   -1.451072832168   -0.830906411968    0.737733759088
 N   -1.180931896042   -2.151791886936    0.734269570141
 C    0.147197272421   -2.369985779686    0.749836998804
 H    0.461005555391   -3.416664512176    0.753216569495
 N    1.159546715462   -1.462004822545    0.763808269079
 C    0.847329971555   -0.151183739296    0.759161865179
 N    1.854956926357    0.773314898009    0.717340028248
 H    2.786408463744    0.442784789257    0.939797962381
 H    1.622219420330    1.733285653048    0.942150273688
 C   -0.518170869319    0.225510114571    0.750390777464
 N   -1.141700180510    1.464475815201    0.760268986482
 C   -2.441625667667    1.156396426840    0.751814133324
 H   -3.251679196454    1.882977227942    0.755862271187
 H   -3.586988241605   -0.660873255794    0.729175742847
NA    3.082468802635    1.989503384546   -4.398722926682
