16

 N   -2.686505211295   -0.203892276100    0.750560346506
 C   -1.454379479028   -0.834182556108    0.751515306814
 N   -1.184238542902   -2.155068031076    0.748051117867
 C    0.143890625561   -2.373261923826    0.763618546530
 H    0.457698908531   -3.419940656316    0.766998117221
 N    1.156240068602   -1.465280966685    0.777589816805
 C    0.844023324695   -0.154459883436    0.772943412905
 N    1.851650279497    0.770038753869    0.731121575974
 H    2.783101816884    0.439508645117    0.953579510107
 H    1.618912773470    1.730009508908    0.955931821414
 C   -0.521477516179    0.222233970431    0.764172325190
 N   -1.145006827370    1.461199671061    0.774050534208
 C   -2.444932314527    1.153120282700    0.765595681050
 H   -3.254985843314    1.879701083802    0.769643818913
 H   -3.590294888465   -0.664149399934    0.742957290573
NA    3.101893857188    2.008749249416   -4.479683285530
