16

 N   -2.689811858155   -0.207168420240    0.764341894231
 C   -1.457686125888   -0.837458700248    0.765296854539
 N   -1.187545189762   -2.158344175216    0.761832665592
 C    0.140583978701   -2.376538067966    0.777400094255
 H    0.454392261671   -3.423216800456    0.780779664946
 N    1.152933421742   -1.468557110825    0.791371364530
 C    0.840716677835   -0.157736027576    0.786724960630
 N    1.848343632637    0.766762609729    0.744903123699
 H    2.779795170024    0.436232500977    0.967361057832
 H    1.615606126610    1.726733364768    0.969713369139
 C   -0.524784163039    0.218957826291    0.777953872915
 N   -1.148313474230    1.457923526921    0.787832081933
 C   -2.448238961387    1.149844138560    0.779377228775
 H   -3.258292490174    1.876424939662    0.783425366638
 H   -3.593601535325   -0.667425544074    0.756738838298
NA    3.121318911740    2.027995114286   -4.560643644377
