16

 N   -2.693118505015   -0.210444564381    0.778123441956
 C   -1.460992772748   -0.840734844389    0.779078402264
 N   -1.190851836622   -2.161620319357    0.775614213317
 C    0.137277331841   -2.379814212107    0.791181641980
 H    0.451085614811   -3.426492944597    0.794561212671
 N    1.149626774882   -1.471833254966    0.805152912255
 C    0.837410030975   -0.161012171717    0.800506508355
 N    1.845036985777    0.763486465588    0.758684671424
 H    2.776488523164    0.432956356836    0.981142605557
 H    1.612299479750    1.723457220627    0.983494916864
 C   -0.528090809899    0.215681682150    0.791735420640
 N   -1.151620121090    1.454647382780    0.801613629658
 C   -2.451545608247    1.146567994419    0.793158776500
 H   -3.261599137034    1.873148795521    0.797206914363
 H   -3.596908182185   -0.670701688215    0.770520386023
NA    3.140743966292    2.047240979156   -4.641604003225
