16

 N   -2.716265033036   -0.233377573361    0.874594276034
 C   -1.484139300769   -0.863667853369    0.875549236342
 N   -1.213998364643   -2.184553328337    0.872085047395
 C    0.114130803820   -2.402747221087    0.887652476058
 H    0.427939086790   -3.449425953577    0.891032046749
 N    1.126480246861   -1.494766263946    0.901623746333
 C    0.814263502954   -0.183945180697    0.896977342433
 N    1.821890457756    0.740553456608    0.855155505502
 H    2.753341995143    0.410023347856    1.077613439635
 H    1.589152951729    1.700524211647    1.079965750942
 C   -0.551237337920    0.192748673170    0.888206254718
 N   -1.174766649111    1.431714373800    0.898084463736
 C   -2.474692136268    1.123634985439    0.889629610578
 H   -3.284745665055    1.850215786541    0.893677748441
 H   -3.620054710206   -0.693634697195    0.866991220101
NA    3.276719348159    2.181962033245   -5.208326515157
