16

 N   -2.722878326757   -0.239929861642    0.902157371484
 C   -1.490752594490   -0.870220141650    0.903112331792
 N   -1.220611658364   -2.191105616618    0.899648142845
 C    0.107517510099   -2.409299509368    0.915215571508
 H    0.421325793069   -3.455978241858    0.918595142199
 N    1.119866953140   -1.501318552227    0.929186841783
 C    0.807650209233   -0.190497468978    0.924540437883
 N    1.815277164035    0.734001168327    0.882718600952
 H    2.746728701422    0.403471059575    1.105176535085
 H    1.582539658008    1.693971923366    1.107528846392
 C   -0.557850631641    0.186196384889    0.915769350168
 N   -1.181379942832    1.425162085519    0.925647559186
 C   -2.481305429989    1.117082697158    0.917192706028
 H   -3.291358958776    1.843663498260    0.921240843891
 H   -3.626668003927   -0.700186985476    0.894554315551
NA    3.315569457264    2.220453762984   -5.370247232852
