16

 N   -2.729491620477   -0.246482149922    0.929720466935
 C   -1.497365888210   -0.876772429930    0.930675427243
 N   -1.227224952084   -2.197657904898    0.927211238296
 C    0.100904216379   -2.415851797648    0.942778666959
 H    0.414712499349   -3.462530530138    0.946158237650
 N    1.113253659420   -1.507870840507    0.956749937234
 C    0.801036915513   -0.197049757258    0.952103533334
 N    1.808663870315    0.727448880047    0.910281696403
 H    2.740115407702    0.396918771295    1.132739630536
 H    1.575926364288    1.687419635086    1.135091941843
 C   -0.564463925361    0.179644096609    0.943332445619
 N   -1.187993236552    1.418609797239    0.953210654637
 C   -2.487918723709    1.110530408878    0.944755801479
 H   -3.297972252496    1.837111209980    0.948803939342
 H   -3.633281297647   -0.706739273756    0.922117411002
NA    3.354419566368    2.258945492724   -5.532167950546
