16

 N   -2.732798267337   -0.249758294062    0.943502014660
 C   -1.500672535070   -0.880048574070    0.944456974968
 N   -1.230531598944   -2.200934049038    0.940992786021
 C    0.097597569519   -2.419127941788    0.956560214684
 H    0.411405852489   -3.465806674278    0.959939785375
 N    1.109947012560   -1.511146984647    0.970531484959
 C    0.797730268653   -0.200325901398    0.965885081059
 N    1.805357223455    0.724172735907    0.924063244128
 H    2.736808760842    0.393642627155    1.146521178261
 H    1.572619717428    1.684143490946    1.148873489568
 C   -0.567770572221    0.176367952469    0.957113993344
 N   -1.191299883412    1.415333653099    0.966992202362
 C   -2.491225370569    1.107254264738    0.958537349204
 H   -3.301278899356    1.833835065840    0.962585487067
 H   -3.636587944507   -0.710015417896    0.935898958727
NA    3.373844620921    2.278191357594   -5.613128309394
