16

 N   -2.739411561057   -0.256310582342    0.971065110111
 C   -1.507285828790   -0.886600862350    0.972020070419
 N   -1.237144892664   -2.207486337318    0.968555881472
 C    0.090984275799   -2.425680230068    0.984123310135
 H    0.404792558769   -3.472358962558    0.987502880826
 N    1.103333718840   -1.517699272927    0.998094580410
 C    0.791116974933   -0.206878189678    0.993448176510
 N    1.798743929735    0.717620447627    0.951626339579
 H    2.730195467122    0.387090338875    1.174084273712
 H    1.566006423708    1.677591202666    1.176436585019
 C   -0.574383865941    0.169815664189    0.984677088795
 N   -1.197913177132    1.408781364819    0.994555297813
 C   -2.497838664289    1.100701976458    0.986100444655
 H   -3.307892193076    1.827282777560    0.990148582518
 H   -3.643201238227   -0.716567706176    0.963462054178
NA    3.412694730026    2.316683087334   -5.775049027089
