16

 N   -2.746024854778   -0.262862870622    0.998628205562
 C   -1.513899122511   -0.893153150630    0.999583165870
 N   -1.243758186385   -2.214038625598    0.996118976923
 C    0.084370982078   -2.432232518348    1.011686405586
 H    0.398179265048   -3.478911250838    1.015065976277
 N    1.096720425119   -1.524251561207    1.025657675861
 C    0.784503681212   -0.213430477958    1.021011271961
 N    1.792130636014    0.711068159347    0.979189435030
 H    2.723582173401    0.380538050595    1.201647369163
 H    1.559393129987    1.671038914386    1.203999680470
 C   -0.580997159662    0.163263375909    1.012240184246
 N   -1.204526470853    1.402229076539    1.022118393264
 C   -2.504451958010    1.094149688178    1.013663540106
 H   -3.314505486797    1.820730489280    1.017711677969
 H   -3.649814531948   -0.723119994456    0.991025149629
NA    3.451544839130    2.355174817073   -5.936969744784
