16

 N   -2.755944795358   -0.272691303043    1.039972848738
 C   -1.523819063091   -0.902981583051    1.040927809046
 N   -1.253678126965   -2.223867058019    1.037463620099
 C    0.074451041498   -2.442060950769    1.053031048762
 H    0.388259324468   -3.488739683259    1.056410619453
 N    1.086800484539   -1.534079993628    1.067002319037
 C    0.774583740632   -0.223258910379    1.062355915137
 N    1.782210695434    0.701239726926    1.020534078206
 H    2.713662232821    0.370709618174    1.242992012339
 H    1.549473189407    1.661210481965    1.245344323646
 C   -0.590917100242    0.153434943488    1.053584827422
 N   -1.214446411433    1.392400644118    1.063463036440
 C   -2.514371898590    1.084321255757    1.055008183282
 H   -3.324425427377    1.810902056859    1.059056321145
 H   -3.659734472528   -0.732948426877    1.032369792805
NA    3.509820002788    2.412912411683   -6.179850821326
