16

 N   -2.759251442218   -0.275967447183    1.053754396463
 C   -1.527125709951   -0.906257727191    1.054709356771
 N   -1.256984773825   -2.227143202159    1.051245167824
 C    0.071144394638   -2.445337094909    1.066812596487
 H    0.384952677608   -3.492015827399    1.070192167178
 N    1.083493837679   -1.537356137768    1.080783866762
 C    0.771277093772   -0.226535054519    1.076137462862
 N    1.778904048574    0.697963582786    1.034315625931
 H    2.710355585961    0.367433474034    1.256773560064
 H    1.546166542547    1.657934337825    1.259125871371
 C   -0.594223747102    0.150158799348    1.067366375147
 N   -1.217753058293    1.389124499978    1.077244584165
 C   -2.517678545450    1.081045111617    1.068789731007
 H   -3.327732074237    1.807625912719    1.072837868870
 H   -3.663041119388   -0.736224571017    1.046151340530
NA    3.529245057340    2.432158276553   -6.260811180173
