16

 N   -2.782397970240   -0.298900456164    1.150225230540
 C   -1.550272237973   -0.929190736172    1.151180190848
 N   -1.280131301847   -2.250076211140    1.147716001901
 C    0.047997866616   -2.468270103890    1.163283430564
 H    0.361806149586   -3.514948836380    1.166663001255
 N    1.060347309657   -1.560289146749    1.177254700839
 C    0.748130565750   -0.249468063500    1.172608296939
 N    1.755757520552    0.675030573805    1.130786460008
 H    2.687209057939    0.344500465053    1.353244394141
 H    1.523020014525    1.635001328844    1.355596705448
 C   -0.617370275124    0.127225790367    1.163837209224
 N   -1.240899586315    1.366191490997    1.173715418242
 C   -2.540825073472    1.058112102636    1.165260565084
 H   -3.350878602259    1.784692903738    1.169308702947
 H   -3.686187647410   -0.759157579998    1.142622174607
NA    3.665220439207    2.566879330641   -6.827533692105
