16

 N   -2.785704617100   -0.302176600304    1.164006778266
 C   -1.553578884833   -0.932466880312    1.164961738574
 N   -1.283437948707   -2.253352355280    1.161497549627
 C    0.044691219756   -2.471546248030    1.177064978290
 H    0.358499502726   -3.518224980520    1.180444548981
 N    1.057040662797   -1.563565290889    1.191036248565
 C    0.744823918890   -0.252744207640    1.186389844665
 N    1.752450873692    0.671754429665    1.144568007734
 H    2.683902411079    0.341224320913    1.367025941867
 H    1.519713367665    1.631725184704    1.369378253174
 C   -0.620676921984    0.123949646227    1.177618756950
 N   -1.244206233175    1.362915346857    1.187496965968
 C   -2.544131720332    1.054835958496    1.179042112810
 H   -3.354185249119    1.781416759598    1.183090250673
 H   -3.689494294270   -0.762433724138    1.156403722333
NA    3.684645493759    2.586125195511   -6.908494050953
