16

 N   -2.789011263960   -0.305452744444    1.177788325991
 C   -1.556885531693   -0.935743024452    1.178743286299
 N   -1.286744595567   -2.256628499420    1.175279097352
 C    0.041384572896   -2.474822392170    1.190846526015
 H    0.355192855866   -3.521501124660    1.194226096706
 N    1.053734015937   -1.566841435029    1.204817796290
 C    0.741517272030   -0.256020351780    1.200171392390
 N    1.749144226832    0.668478285525    1.158349555459
 H    2.680595764219    0.337948176773    1.380807489592
 H    1.516406720805    1.628449040564    1.383159800899
 C   -0.623983568844    0.120673502087    1.191400304675
 N   -1.247512880035    1.359639202717    1.201278513693
 C   -2.547438367192    1.051559814356    1.192823660535
 H   -3.357491895979    1.778140615458    1.196871798398
 H   -3.692800941130   -0.765709868278    1.170185270058
NA    3.704070548311    2.605371060381   -6.989454409800
