16

 N   -2.798931204540   -0.315281176864    1.219132969167
 C   -1.566805472273   -0.945571456872    1.220087929475
 N   -1.296664536147   -2.266456931840    1.216623740528
 C    0.031464632316   -2.484650824590    1.232191169191
 H    0.345272915286   -3.531329557080    1.235570739882
 N    1.043814075357   -1.576669867449    1.246162439466
 C    0.731597331450   -0.265848784200    1.241516035566
 N    1.739224286252    0.658649853105    1.199694198635
 H    2.670675823639    0.328119744353    1.422152132768
 H    1.506486780225    1.618620608144    1.424504444075
 C   -0.633903509424    0.110845069667    1.232744947851
 N   -1.257432820615    1.349810770297    1.242623156869
 C   -2.557358307772    1.041731381936    1.234168303711
 H   -3.367411836559    1.768312183038    1.238216441574
 H   -3.702720881710   -0.775538300698    1.211529913234
NA    3.762345711969    2.663108654991   -7.232335486343
