16

 N   -2.805544498261   -0.321833465144    1.246696064618
 C   -1.573418765994   -0.952123745152    1.247651024926
 N   -1.303277829868   -2.273009220120    1.244186835979
 C    0.024851338595   -2.491203112870    1.259754264642
 H    0.338659621565   -3.537881845360    1.263133835333
 N    1.037200781636   -1.583222155729    1.273725534917
 C    0.724984037729   -0.272401072480    1.269079131017
 N    1.732610992531    0.652097564825    1.227257294086
 H    2.664062529918    0.321567456073    1.449715228219
 H    1.499873486504    1.612068319864    1.452067539526
 C   -0.640516803145    0.104292781387    1.260308043302
 N   -1.264046114336    1.343258482017    1.270186252320
 C   -2.563971601493    1.035179093656    1.261731399162
 H   -3.374025130280    1.761759894758    1.265779537025
 H   -3.709334175431   -0.782090588978    1.239093008685
NA    3.801195821073    2.701600384730   -7.394256204038
