16

 N   -2.808851145121   -0.325109609284    1.260477612343
 C   -1.576725412854   -0.955399889292    1.261432572651
 N   -1.306584476728   -2.276285364260    1.257968383704
 C    0.021544691735   -2.494479257010    1.273535812367
 H    0.335352974705   -3.541157989500    1.276915383058
 N    1.033894134776   -1.586498299869    1.287507082642
 C    0.721677390869   -0.275677216620    1.282860678742
 N    1.729304345671    0.648821420685    1.241038841811
 H    2.660755883058    0.318291311933    1.463496775944
 H    1.496566839644    1.608792175724    1.465849087251
 C   -0.643823450005    0.101016637247    1.274089591027
 N   -1.267352761196    1.339982337877    1.283967800045
 C   -2.567278248353    1.031902949516    1.275512946887
 H   -3.377331777140    1.758483750618    1.279561084750
 H   -3.712640822291   -0.785366733118    1.252874556410
NA    3.820620875626    2.720846249600   -7.475216562885
