16

 N   -2.815464438841   -0.331661897565    1.288040707794
 C   -1.583338706574   -0.961952177573    1.288995668102
 N   -1.313197770448   -2.282837652541    1.285531479155
 C    0.014931398015   -2.501031545291    1.301098907818
 H    0.328739680985   -3.547710277781    1.304478478509
 N    1.027280841056   -1.593050588150    1.315070178093
 C    0.715064097149   -0.282229504901    1.310423774193
 N    1.722691051951    0.642269132404    1.268601937262
 H    2.654142589338    0.311739023652    1.491059871395
 H    1.489953545924    1.602239887443    1.493412182702
 C   -0.650436743725    0.094464348966    1.301652686478
 N   -1.273966054916    1.333430049596    1.311530895496
 C   -2.573891542073    1.025350661235    1.303076042338
 H   -3.383945070860    1.751931462337    1.307124180201
 H   -3.719254116011   -0.791919021399    1.280437651861
NA    3.859470984730    2.759337979340   -7.637137280580
