13

 C    0.976630671084    1.820946605465    1.600059788528
 H    0.510010671084    2.813113605465    1.600059788528
 H    1.613779671084    1.716529605465    2.492565788528
 H    1.613779671084    1.716529605465    0.707553788528
 C   -0.121544328916    0.769861605465    1.600059788528
 O   -1.327707328916    1.047915605465    1.600059788528
 N    0.309384671084   -0.530287394535    1.600059788528
 H    1.301561671084   -0.724188394535    1.600059788528
 C   -0.648950328916   -1.628815394535    1.600059788528
 H   -1.293015328916   -1.580336394535    2.490767788528
 H   -1.293015328916   -1.580336394535    0.709351788528
 H   -0.095724328916   -2.577240394535    1.600059788528
 K    0.309384671084   -0.530287394535   -2.999940211472
