13

 C    0.976630671084    1.820946605465    2.330521865899
 H    0.510010671084    2.813113605465    2.330521865899
 H    1.613779671084    1.716529605465    3.223027865899
 H    1.613779671084    1.716529605465    1.438015865899
 C   -0.121544328916    0.769861605465    2.330521865899
 O   -1.327707328916    1.047915605465    2.330521865899
 N    0.309384671084   -0.530287394535    2.330521865899
 H    1.301561671084   -0.724188394535    2.330521865899
 C   -0.648950328916   -1.628815394535    2.330521865899
 H   -1.293015328916   -1.580336394535    3.221229865899
 H   -1.293015328916   -1.580336394535    1.439813865899
 H   -0.095724328916   -2.577240394535    2.330521865899
 K    0.309384671084   -0.530287394535   -4.369478134101
