13

 C    0.976630671084    1.820946605465    3.026200034824
 H    0.510010671084    2.813113605465    3.026200034824
 H    1.613779671084    1.716529605465    3.918706034824
 H    1.613779671084    1.716529605465    2.133694034824
 C   -0.121544328916    0.769861605465    3.026200034824
 O   -1.327707328916    1.047915605465    3.026200034824
 N    0.309384671084   -0.530287394535    3.026200034824
 H    1.301561671084   -0.724188394535    3.026200034824
 C   -0.648950328916   -1.628815394535    3.026200034824
 H   -1.293015328916   -1.580336394535    3.916908034824
 H   -1.293015328916   -1.580336394535    2.135492034824
 H   -0.095724328916   -2.577240394535    3.026200034824
 K    0.309384671084   -0.530287394535   -5.673799965176
