23

 C   -3.561918158691    0.428210045786    0.000000000000
 C   -2.587298158691   -0.710809954214    0.000000000000
 O   -3.178058158691   -1.892109954214    0.000000000000
 C   -2.306388158691   -3.061969954214    0.000000000000
 O   -1.350128158691   -0.584629954214    0.000000000000
 H   -3.030068158691    1.384640045786    0.000000000000
 H   -4.206708158691    0.351070045786    0.886460000000
 H   -4.206708158691    0.351070045786   -0.886460000000
 H   -2.989858158691   -3.914379954214    0.000000000000
 H   -1.683798158691   -3.055629954214    0.902520000000
 H   -1.683798158691   -3.055629954214   -0.902520000000
LI    0.311211841309    0.134760045786    0.000000000000
 O    1.320639147703    0.571860163730    0.000000000000
 C    2.557801148685    0.698040192760    0.000000000000
 O    3.148567367637    1.879345190906    0.000000000000
 C    2.276893882631    3.049193628797    0.000000000000
 H    2.960371979942    3.901608198474    0.000000000000
 H    1.654304306317    3.042856177349   -0.902521278793
 H    1.654304306317    3.042856177349    0.902521278793
 C    3.532429229865   -0.440981726027    0.000000000000
 H    3.000580067730   -1.397412736783    0.000000000000
 H    4.177219488103   -0.363844551968   -0.886459619024
 H    4.177219488103   -0.363844551968    0.886459619024
