23

 C   -3.693340308449    0.371301899160    0.000000000000
 C   -2.718720308449   -0.767718100840    0.000000000000
 O   -3.309480308449   -1.949018100840    0.000000000000
 C   -2.437810308449   -3.118878100840    0.000000000000
 O   -1.481550308449   -0.641538100840    0.000000000000
 H   -3.161490308449    1.327731899160    0.000000000000
 H   -4.338130308449    0.294161899160    0.886460000000
 H   -4.338130308449    0.294161899160   -0.886460000000
 H   -3.121280308449   -3.971288100840    0.000000000000
 H   -1.815220308449   -3.112538100840    0.902520000000
 H   -1.815220308449   -3.112538100840   -0.902520000000
LI    0.179789691551    0.077851899160    0.000000000000
 O    1.464515354234    0.634161140181    0.000000000000
 C    2.701677355216    0.760341169210    0.000000000000
 O    3.292443574168    1.941646167356    0.000000000000
 C    2.420770089162    3.111494605248    0.000000000000
 H    3.104248186473    3.963909174924    0.000000000000
 H    1.798180512848    3.105157153800   -0.902521278793
 H    1.798180512848    3.105157153800    0.902521278793
 C    3.676305436396   -0.378680749576    0.000000000000
 H    3.144456274261   -1.335111760332    0.000000000000
 H    4.321095694634   -0.301543575518   -0.886459619024
 H    4.321095694634   -0.301543575518    0.886459619024
