23

 C   -3.824762458207    0.314393752535    0.000000000000
 C   -2.850142458207   -0.824626247465    0.000000000000
 O   -3.440902458207   -2.005926247465    0.000000000000
 C   -2.569232458207   -3.175786247465    0.000000000000
 O   -1.612972458207   -0.698446247465    0.000000000000
 H   -3.292912458207    1.270823752535    0.000000000000
 H   -4.469552458207    0.237253752535    0.886460000000
 H   -4.469552458207    0.237253752535   -0.886460000000
 H   -3.252702458207   -4.028196247465    0.000000000000
 H   -1.946642458207   -3.169446247465    0.902520000000
 H   -1.946642458207   -3.169446247465   -0.902520000000
LI    0.048367541793    0.020943752535    0.000000000000
 O    1.608391560765    0.696462116632    0.000000000000
 C    2.845553561747    0.822642145661    0.000000000000
 O    3.436319780699    2.003947143807    0.000000000000
 C    2.564646295693    3.173795581698    0.000000000000
 H    3.248124393004    4.026210151375    0.000000000000
 H    1.942056719379    3.167458130251   -0.902521278793
 H    1.942056719379    3.167458130251    0.902521278793
 C    3.820181642927   -0.316379773125    0.000000000000
 H    3.288332480792   -1.272810783882    0.000000000000
 H    4.464971901165   -0.239242599067   -0.886459619024
 H    4.464971901165   -0.239242599067    0.886459619024
