23

 C   -3.956184607965    0.257485605910    0.000000000000
 C   -2.981564607965   -0.881534394090    0.000000000000
 O   -3.572324607965   -2.062834394090    0.000000000000
 C   -2.700654607965   -3.232694394090    0.000000000000
 O   -1.744394607965   -0.755354394090    0.000000000000
 H   -3.424334607965    1.213915605910    0.000000000000
 H   -4.600974607965    0.180345605910    0.886460000000
 H   -4.600974607965    0.180345605910   -0.886460000000
 H   -3.384124607965   -4.085104394090    0.000000000000
 H   -2.078064607965   -3.226354394090    0.902520000000
 H   -2.078064607965   -3.226354394090   -0.902520000000
LI   -0.083054607965   -0.035964394090    0.000000000000
 O    1.752267767296    0.758763093082    0.000000000000
 C    2.989429768278    0.884943122111    0.000000000000
 O    3.580195987230    2.066248120257    0.000000000000
 C    2.708522502224    3.236096558149    0.000000000000
 H    3.392000599535    4.088511127825    0.000000000000
 H    2.085932925910    3.229759106701   -0.902521278793
 H    2.085932925910    3.229759106701    0.902521278793
 C    3.964057849458   -0.254078796675    0.000000000000
 H    3.432208687323   -1.210509807431    0.000000000000
 H    4.608848107696   -0.176941622616   -0.886459619024
 H    4.608848107696   -0.176941622616    0.886459619024
