23

 C   -4.043799374470    0.219546841493    0.000000000000
 C   -3.069179374470   -0.919473158507    0.000000000000
 O   -3.659939374470   -2.100773158507    0.000000000000
 C   -2.788269374470   -3.270633158507    0.000000000000
 O   -1.832009374470   -0.793293158507    0.000000000000
 H   -3.511949374470    1.175976841493    0.000000000000
 H   -4.688589374470    0.142406841493    0.886460000000
 H   -4.688589374470    0.142406841493   -0.886460000000
 H   -3.471739374470   -4.123043158507    0.000000000000
 H   -2.165679374470   -3.264293158507    0.902520000000
 H   -2.165679374470   -3.264293158507   -0.902520000000
LI   -0.170669374470   -0.073903158507    0.000000000000
 O    1.848185238316    0.800297077383    0.000000000000
 C    3.085347239299    0.926477106412    0.000000000000
 O    3.676113458251    2.107782104558    0.000000000000
 C    2.804439973245    3.277630542449    0.000000000000
 H    3.487918070556    4.130045112126    0.000000000000
 H    2.181850396931    3.271293091002   -0.902521278793
 H    2.181850396931    3.271293091002    0.902521278793
 C    4.059975320479   -0.212544812374    0.000000000000
 H    3.528126158344   -1.168975823131    0.000000000000
 H    4.704765578717   -0.135407638316   -0.886459619024
 H    4.704765578717   -0.135407638316    0.886459619024
