23

 C   -4.350451057239    0.086761166034    0.000000000000
 C   -3.375831057239   -1.052258833966    0.000000000000
 O   -3.966591057239   -2.233558833966    0.000000000000
 C   -3.094921057239   -3.403418833966    0.000000000000
 O   -2.138661057239   -0.926078833966    0.000000000000
 H   -3.818601057239    1.043191166034    0.000000000000
 H   -4.995241057239    0.009621166034    0.886460000000
 H   -4.995241057239    0.009621166034   -0.886460000000
 H   -3.778391057239   -4.255828833966    0.000000000000
 H   -2.472331057239   -3.397078833966    0.902520000000
 H   -2.472331057239   -3.397078833966   -0.902520000000
LI   -0.477321057239   -0.206688833966    0.000000000000
 O    2.183896386889    0.945666022434    0.000000000000
 C    3.421058387871    1.071846051463    0.000000000000
 O    4.011824606824    2.253151049609    0.000000000000
 C    3.140151121818    3.422999487501    0.000000000000
 H    3.823629219128    4.275414057177    0.000000000000
 H    2.517561545503    3.416662036053   -0.902521278793
 H    2.517561545503    3.416662036053    0.902521278793
 C    4.395686469051   -0.067175867323    0.000000000000
 H    3.863837306916   -1.023606878079    0.000000000000
 H    5.040476727290    0.009961306735   -0.886459619024
 H    5.040476727290    0.009961306735    0.886459619024
