23

 C   -4.394258440492    0.067791783826    0.000000000000
 C   -3.419638440492   -1.071228216174    0.000000000000
 O   -4.010398440492   -2.252528216174    0.000000000000
 C   -3.138728440492   -3.422388216174    0.000000000000
 O   -2.182468440492   -0.945048216174    0.000000000000
 H   -3.862408440492    1.024221783826    0.000000000000
 H   -5.039048440492   -0.009348216174    0.886460000000
 H   -5.039048440492   -0.009348216174   -0.886460000000
 H   -3.822198440492   -4.274798216174    0.000000000000
 H   -2.516138440492   -3.416048216174    0.902520000000
 H   -2.516138440492   -3.416048216174   -0.902520000000
LI   -0.521128440492   -0.225658216174    0.000000000000
 O    2.231855122399    0.966433014584    0.000000000000
 C    3.469017123382    1.092613043613    0.000000000000
 O    4.059783342334    2.273918041759    0.000000000000
 C    3.188109857328    3.443766479651    0.000000000000
 H    3.871587954639    4.296181049327    0.000000000000
 H    2.565520281014    3.437429028203   -0.902521278793
 H    2.565520281014    3.437429028203    0.902521278793
 C    4.443645204562   -0.046408875173    0.000000000000
 H    3.911796042427   -1.002839885929    0.000000000000
 H    5.088435462800    0.030728298885   -0.886459619024
 H    5.088435462800    0.030728298885    0.886459619024
