23

 C   -4.438065823744    0.048822401617    0.000000000000
 C   -3.463445823744   -1.090197598383    0.000000000000
 O   -4.054205823744   -2.271497598383    0.000000000000
 C   -3.182535823744   -3.441357598383    0.000000000000
 O   -2.226275823744   -0.964017598383    0.000000000000
 H   -3.906215823744    1.005252401617    0.000000000000
 H   -5.082855823744   -0.028317598383    0.886460000000
 H   -5.082855823744   -0.028317598383   -0.886460000000
 H   -3.866005823744   -4.293767598383    0.000000000000
 H   -2.559945823744   -3.435017598383    0.902520000000
 H   -2.559945823744   -3.435017598383   -0.902520000000
LI   -0.564935823744   -0.244627598383    0.000000000000
 O    2.279813857910    0.987200006734    0.000000000000
 C    3.516975858892    1.113380035763    0.000000000000
 O    4.107742077844    2.294685033909    0.000000000000
 C    3.236068592838    3.464533471801    0.000000000000
 H    3.919546690149    4.316948041477    0.000000000000
 H    2.613479016524    3.458196020353   -0.902521278793
 H    2.613479016524    3.458196020353    0.902521278793
 C    4.491603940072   -0.025641883023    0.000000000000
 H    3.959754777937   -0.982072893779    0.000000000000
 H    5.136394198310    0.051495291036   -0.886459619024
 H    5.136394198310    0.051495291036    0.886459619024
