23

 C   -4.569487973502   -0.008085745008    0.000000000000
 C   -3.594867973502   -1.147105745008    0.000000000000
 O   -4.185627973502   -2.328405745008    0.000000000000
 C   -3.313957973502   -3.498265745008    0.000000000000
 O   -2.357697973502   -1.020925745008    0.000000000000
 H   -4.037637973502    0.948344254992    0.000000000000
 H   -5.214277973502   -0.085225745008    0.886460000000
 H   -5.214277973502   -0.085225745008   -0.886460000000
 H   -3.997427973502   -4.350675745008    0.000000000000
 H   -2.691367973502   -3.491925745008    0.902520000000
 H   -2.691367973502   -3.491925745008   -0.902520000000
LI   -0.696357973502   -0.301535745008    0.000000000000
 O    2.423690064441    1.049500983185    0.000000000000
 C    3.660852065423    1.175681012214    0.000000000000
 O    4.251618284375    2.356986010360    0.000000000000
 C    3.379944799369    3.526834448252    0.000000000000
 H    4.063422896680    4.379249017928    0.000000000000
 H    2.757355223055    3.520496996804   -0.902521278793
 H    2.757355223055    3.520496996804    0.902521278793
 C    4.635480146603    0.036659093428    0.000000000000
 H    4.103630984468   -0.919771917328    0.000000000000
 H    5.280270404841    0.113796267486   -0.886459619024
 H    5.280270404841    0.113796267486    0.886459619024
