23

 C   -4.613295356755   -0.027055127217    0.000000000000
 C   -3.638675356755   -1.166075127217    0.000000000000
 O   -4.229435356755   -2.347375127217    0.000000000000
 C   -3.357765356755   -3.517235127217    0.000000000000
 O   -2.401505356755   -1.039895127217    0.000000000000
 H   -4.081445356755    0.929374872783    0.000000000000
 H   -5.258085356755   -0.104195127217    0.886460000000
 H   -5.258085356755   -0.104195127217   -0.886460000000
 H   -4.041235356755   -4.369645127217    0.000000000000
 H   -2.735175356755   -3.510895127217    0.902520000000
 H   -2.735175356755   -3.510895127217   -0.902520000000
LI   -0.740165356755   -0.320505127217    0.000000000000
 O    2.471648799951    1.070267975335    0.000000000000
 C    3.708810800933    1.196448004364    0.000000000000
 O    4.299577019886    2.377753002510    0.000000000000
 C    3.427903534880    3.547601440402    0.000000000000
 H    4.111381632190    4.400016010078    0.000000000000
 H    2.805313958565    3.541263988954   -0.902521278793
 H    2.805313958565    3.541263988954    0.902521278793
 C    4.683438882114    0.057426085578    0.000000000000
 H    4.151589719978   -0.899004925178    0.000000000000
 H    5.328229140352    0.134563259636   -0.886459619024
 H    5.328229140352    0.134563259636    0.886459619024
