23

 C   -4.657102740008   -0.046024509425    0.000000000000
 C   -3.682482740008   -1.185044509425    0.000000000000
 O   -4.273242740008   -2.366344509425    0.000000000000
 C   -3.401572740008   -3.536204509425    0.000000000000
 O   -2.445312740008   -1.058864509425    0.000000000000
 H   -4.125252740008    0.910405490575    0.000000000000
 H   -5.301892740008   -0.123164509425    0.886460000000
 H   -5.301892740008   -0.123164509425   -0.886460000000
 H   -4.085042740008   -4.388614509425    0.000000000000
 H   -2.778982740008   -3.529864509425    0.902520000000
 H   -2.778982740008   -3.529864509425   -0.902520000000
LI   -0.783972740008   -0.339474509425    0.000000000000
 O    2.519607535462    1.091034967485    0.000000000000
 C    3.756769536444    1.217214996514    0.000000000000
 O    4.347535755396    2.398519994660    0.000000000000
 C    3.475862270390    3.568368432552    0.000000000000
 H    4.159340367701    4.420783002228    0.000000000000
 H    2.853272694076    3.562030981104   -0.902521278793
 H    2.853272694076    3.562030981104    0.902521278793
 C    4.731397617624    0.078193077728    0.000000000000
 H    4.199548455489   -0.878237933028    0.000000000000
 H    5.376187875862    0.155330251787   -0.886459619024
 H    5.376187875862    0.155330251787    0.886459619024
