23

 C   -4.700910123260   -0.064993891633    0.000000000000
 C   -3.726290123260   -1.204013891633    0.000000000000
 O   -4.317050123260   -2.385313891633    0.000000000000
 C   -3.445380123260   -3.555173891633    0.000000000000
 O   -2.489120123260   -1.077833891633    0.000000000000
 H   -4.169060123260    0.891436108367    0.000000000000
 H   -5.345700123260   -0.142133891633    0.886460000000
 H   -5.345700123260   -0.142133891633   -0.886460000000
 H   -4.128850123260   -4.407583891633    0.000000000000
 H   -2.822790123260   -3.548833891633    0.902520000000
 H   -2.822790123260   -3.548833891633   -0.902520000000
LI   -0.827780123260   -0.358443891633    0.000000000000
 O    2.567566270972    1.111801959635    0.000000000000
 C    3.804728271954    1.237981988665    0.000000000000
 O    4.395494490906    2.419286986811    0.000000000000
 C    3.523821005900    3.589135424702    0.000000000000
 H    4.207299103211    4.441549994379    0.000000000000
 H    2.901231429586    3.582797973254   -0.902521278793
 H    2.901231429586    3.582797973254    0.902521278793
 C    4.779356353134    0.098960069878    0.000000000000
 H    4.247507190999   -0.857470940878    0.000000000000
 H    5.424146611373    0.176097243937   -0.886459619024
 H    5.424146611373    0.176097243937    0.886459619024
