23

 C   -4.832332273018   -0.121902038259    0.000000000000
 C   -3.857712273018   -1.260922038259    0.000000000000
 O   -4.448472273018   -2.442222038259    0.000000000000
 C   -3.576802273018   -3.612082038259    0.000000000000
 O   -2.620542273018   -1.134742038259    0.000000000000
 H   -4.300482273018    0.834527961741    0.000000000000
 H   -5.477122273018   -0.199042038259    0.886460000000
 H   -5.477122273018   -0.199042038259   -0.886460000000
 H   -4.260272273018   -4.464492038259    0.000000000000
 H   -2.954212273018   -3.605742038259    0.902520000000
 H   -2.954212273018   -3.605742038259   -0.902520000000
LI   -0.959202273018   -0.415352038259    0.000000000000
 O    2.711442477503    1.174102936086    0.000000000000
 C    3.948604478485    1.300282965115    0.000000000000
 O    4.539370697438    2.481587963261    0.000000000000
 C    3.667697212432    3.651436401153    0.000000000000
 H    4.351175309742    4.503850970829    0.000000000000
 H    3.045107636117    3.645098949705   -0.902521278793
 H    3.045107636117    3.645098949705    0.902521278793
 C    4.923232559665    0.161261046329    0.000000000000
 H    4.391383397530   -0.795169964427    0.000000000000
 H    5.568022817904    0.238398220387   -0.886459619024
 H    5.568022817904    0.238398220387    0.886459619024
