23

 C   -4.919947039524   -0.159840802675    0.000000000000
 C   -3.945327039524   -1.298860802675    0.000000000000
 O   -4.536087039524   -2.480160802675    0.000000000000
 C   -3.664417039524   -3.650020802675    0.000000000000
 O   -2.708157039524   -1.172680802675    0.000000000000
 H   -4.388097039524    0.796589197325    0.000000000000
 H   -5.564737039524   -0.236980802675    0.886460000000
 H   -5.564737039524   -0.236980802675   -0.886460000000
 H   -4.347887039524   -4.502430802675    0.000000000000
 H   -3.041827039524   -3.643680802675    0.902520000000
 H   -3.041827039524   -3.643680802675   -0.902520000000
LI   -1.046817039524   -0.453290802675    0.000000000000
 O    2.807359948524    1.215636920386    0.000000000000
 C    4.044521949506    1.341816949415    0.000000000000
 O    4.635288168458    2.523121947561    0.000000000000
 C    3.763614683452    3.692970385453    0.000000000000
 H    4.447092780763    4.545384955130    0.000000000000
 H    3.141025107138    3.686632934005   -0.902521278793
 H    3.141025107138    3.686632934005    0.902521278793
 C    5.019150030686    0.202795030629    0.000000000000
 H    4.487300868551   -0.753635980127    0.000000000000
 H    5.663940288924    0.279932204688   -0.886459619024
 H    5.663940288924    0.279932204688    0.886459619024
