23

 C   -5.007561806029   -0.197779567092    0.000000000000
 C   -4.032941806029   -1.336799567092    0.000000000000
 O   -4.623701806029   -2.518099567092    0.000000000000
 C   -3.752031806029   -3.687959567092    0.000000000000
 O   -2.795771806029   -1.210619567092    0.000000000000
 H   -4.475711806029    0.758650432908    0.000000000000
 H   -5.652351806029   -0.274919567092    0.886460000000
 H   -5.652351806029   -0.274919567092   -0.886460000000
 H   -4.435501806029   -4.540369567092    0.000000000000
 H   -3.129441806029   -3.681619567092    0.902520000000
 H   -3.129441806029   -3.681619567092   -0.902520000000
LI   -1.134431806029   -0.491229567092    0.000000000000
 O    2.903277419544    1.257170904687    0.000000000000
 C    4.140439420527    1.383350933716    0.000000000000
 O    4.731205639479    2.564655931862    0.000000000000
 C    3.859532154473    3.734504369753    0.000000000000
 H    4.543010251784    4.586918939430    0.000000000000
 H    3.236942578159    3.728166918306   -0.902521278793
 H    3.236942578159    3.728166918306    0.902521278793
 C    5.115067501707    0.244329014930    0.000000000000
 H    4.583218339572   -0.712101995826    0.000000000000
 H    5.759857759945    0.321466188988   -0.886459619024
 H    5.759857759945    0.321466188988    0.886459619024
