23

 C   -5.051369189282   -0.216748949301    0.000000000000
 C   -4.076749189282   -1.355768949301    0.000000000000
 O   -4.667509189282   -2.537068949301    0.000000000000
 C   -3.795839189282   -3.706928949301    0.000000000000
 O   -2.839579189282   -1.229588949301    0.000000000000
 H   -4.519519189282    0.739681050699    0.000000000000
 H   -5.696159189282   -0.293888949301    0.886460000000
 H   -5.696159189282   -0.293888949301   -0.886460000000
 H   -4.479309189282   -4.559338949301    0.000000000000
 H   -3.173249189282   -3.700588949301    0.902520000000
 H   -3.173249189282   -3.700588949301   -0.902520000000
LI   -1.178239189282   -0.510198949301    0.000000000000
 O    2.951236155055    1.277937896837    0.000000000000
 C    4.188398156037    1.404117925866    0.000000000000
 O    4.779164374989    2.585422924012    0.000000000000
 C    3.907490889983    3.755271361904    0.000000000000
 H    4.590968987294    4.607685931580    0.000000000000
 H    3.284901313669    3.748933910456   -0.902521278793
 H    3.284901313669    3.748933910456    0.902521278793
 C    5.163026237217    0.265096007080    0.000000000000
 H    4.631177075082   -0.691335003676    0.000000000000
 H    5.807816495455    0.342233181138   -0.886459619024
 H    5.807816495455    0.342233181138    0.886459619024
