23

 C   -5.095176572535   -0.235718331509    0.000000000000
 C   -4.120556572535   -1.374738331509    0.000000000000
 O   -4.711316572535   -2.556038331509    0.000000000000
 C   -3.839646572535   -3.725898331509    0.000000000000
 O   -2.883386572535   -1.248558331509    0.000000000000
 H   -4.563326572535    0.720711668491    0.000000000000
 H   -5.739966572535   -0.312858331509    0.886460000000
 H   -5.739966572535   -0.312858331509   -0.886460000000
 H   -4.523116572535   -4.578308331509    0.000000000000
 H   -3.217056572535   -3.719558331509    0.902520000000
 H   -3.217056572535   -3.719558331509   -0.902520000000
LI   -1.222046572535   -0.529168331509    0.000000000000
 O    2.999194890565    1.298704888987    0.000000000000
 C    4.236356891547    1.424884918016    0.000000000000
 O    4.827123110500    2.606189916162    0.000000000000
 C    3.955449625494    3.776038354054    0.000000000000
 H    4.638927722804    4.628452923730    0.000000000000
 H    3.332860049179    3.769700902606   -0.902521278793
 H    3.332860049179    3.769700902606    0.902521278793
 C    5.210984972728    0.285862999230    0.000000000000
 H    4.679135810592   -0.670568011526    0.000000000000
 H    5.855775230966    0.363000173289   -0.886459619024
 H    5.855775230966    0.363000173289    0.886459619024
