23

 C   -5.358020872051   -0.349534624760    0.000000000000
 C   -4.383400872051   -1.488554624760    0.000000000000
 O   -4.974160872051   -2.669854624760    0.000000000000
 C   -4.102490872051   -3.839714624760    0.000000000000
 O   -3.146230872051   -1.362374624760    0.000000000000
 H   -4.826170872051    0.606895375240    0.000000000000
 H   -6.002810872051   -0.426674624760    0.886460000000
 H   -6.002810872051   -0.426674624760   -0.886460000000
 H   -4.785960872051   -4.692124624760    0.000000000000
 H   -3.479900872051   -3.833374624760    0.902520000000
 H   -3.479900872051   -3.833374624760   -0.902520000000
LI   -1.484890872051   -0.642984624760    0.000000000000
 O    3.286947303627    1.423306841888    0.000000000000
 C    4.524109304610    1.549486870917    0.000000000000
 O    5.114875523562    2.730791869063    0.000000000000
 C    4.243202038556    3.900640306955    0.000000000000
 H    4.926680135867    4.753054876631    0.000000000000
 H    3.620612462242    3.894302855507   -0.902521278793
 H    3.620612462242    3.894302855507    0.902521278793
 C    5.498737385790    0.410464952131    0.000000000000
 H    4.966888223655   -0.545966058625    0.000000000000
 H    6.143527644028    0.487602126190   -0.886459619024
 H    6.143527644028    0.487602126190    0.886459619024
