23

 C   -5.401828255303   -0.368504006968    0.000000000000
 C   -4.427208255303   -1.507524006968    0.000000000000
 O   -5.017968255303   -2.688824006968    0.000000000000
 C   -4.146298255303   -3.858684006968    0.000000000000
 O   -3.190038255303   -1.381344006968    0.000000000000
 H   -4.869978255303    0.587925993032    0.000000000000
 H   -6.046618255303   -0.445644006968    0.886460000000
 H   -6.046618255303   -0.445644006968   -0.886460000000
 H   -4.829768255303   -4.711094006968    0.000000000000
 H   -3.523708255303   -3.852344006968    0.902520000000
 H   -3.523708255303   -3.852344006968   -0.902520000000
LI   -1.528698255303   -0.661954006968    0.000000000000
 O    3.334906039138    1.444073834038    0.000000000000
 C    4.572068040120    1.570253863068    0.000000000000
 O    5.162834259072    2.751558861214    0.000000000000
 C    4.291160774066    3.921407299105    0.000000000000
 H    4.974638871377    4.773821868782    0.000000000000
 H    3.668571197752    3.915069847658   -0.902521278793
 H    3.668571197752    3.915069847658    0.902521278793
 C    5.546696121300    0.431231944282    0.000000000000
 H    5.014846959165   -0.525199066475    0.000000000000
 H    6.191486379538    0.508369118340   -0.886459619024
 H    6.191486379538    0.508369118340    0.886459619024
