23

 C   -5.489443021809   -0.406442771385    0.000000000000
 C   -4.514823021809   -1.545462771385    0.000000000000
 O   -5.105583021809   -2.726762771385    0.000000000000
 C   -4.233913021809   -3.896622771385    0.000000000000
 O   -3.277653021809   -1.419282771385    0.000000000000
 H   -4.957593021809    0.549987228615    0.000000000000
 H   -6.134233021809   -0.483582771385    0.886460000000
 H   -6.134233021809   -0.483582771385   -0.886460000000
 H   -4.917383021809   -4.749032771385    0.000000000000
 H   -3.611323021809   -3.890282771385    0.902520000000
 H   -3.611323021809   -3.890282771385   -0.902520000000
LI   -1.616313021809   -0.699892771385    0.000000000000
 O    3.430823510158    1.485607818339    0.000000000000
 C    4.667985511141    1.611787847368    0.000000000000
 O    5.258751730093    2.793092845514    0.000000000000
 C    4.387078245087    3.962941283406    0.000000000000
 H    5.070556342398    4.815355853082    0.000000000000
 H    3.764488668773    3.956603831958   -0.902521278793
 H    3.764488668773    3.956603831958    0.902521278793
 C    5.642613592321    0.472765928582    0.000000000000
 H    5.110764430186   -0.483665082174    0.000000000000
 H    6.287403850559    0.549903102640   -0.886459619024
 H    6.287403850559    0.549903102640    0.886459619024
