23

 C   -5.533250405061   -0.425412153593    0.000000000000
 C   -4.558630405061   -1.564432153593    0.000000000000
 O   -5.149390405061   -2.745732153593    0.000000000000
 C   -4.277720405061   -3.915592153593    0.000000000000
 O   -3.321460405061   -1.438252153593    0.000000000000
 H   -5.001400405061    0.531017846407    0.000000000000
 H   -6.178040405061   -0.502552153593    0.886460000000
 H   -6.178040405061   -0.502552153593   -0.886460000000
 H   -4.961190405061   -4.768002153593    0.000000000000
 H   -3.655130405061   -3.909252153593    0.902520000000
 H   -3.655130405061   -3.909252153593   -0.902520000000
LI   -1.660120405061   -0.718862153593    0.000000000000
 O    3.478782245669    1.506374810489    0.000000000000
 C    4.715944246651    1.632554839518    0.000000000000
 O    5.306710465603    2.813859837664    0.000000000000
 C    4.435036980597    3.983708275556    0.000000000000
 H    5.118515077908    4.836122845232    0.000000000000
 H    3.812447404283    3.977370824108   -0.902521278793
 H    3.812447404283    3.977370824108    0.902521278793
 C    5.690572327831    0.493532920732    0.000000000000
 H    5.158723165696   -0.462898090024    0.000000000000
 H    6.335362586069    0.570670094790   -0.886459619024
 H    6.335362586069    0.570670094790    0.886459619024
