23

 C   -5.620865171567   -0.463350918010    0.000000000000
 C   -4.646245171567   -1.602370918010    0.000000000000
 O   -5.237005171567   -2.783670918010    0.000000000000
 C   -4.365335171567   -3.953530918010    0.000000000000
 O   -3.409075171567   -1.476190918010    0.000000000000
 H   -5.089015171567    0.493079081990    0.000000000000
 H   -6.265655171567   -0.540490918010    0.886460000000
 H   -6.265655171567   -0.540490918010   -0.886460000000
 H   -5.048805171567   -4.805940918010    0.000000000000
 H   -3.742745171567   -3.947190918010    0.902520000000
 H   -3.742745171567   -3.947190918010   -0.902520000000
LI   -1.747735171567   -0.756800918010    0.000000000000
 O    3.574699716690    1.547908794789    0.000000000000
 C    4.811861717672    1.674088823819    0.000000000000
 O    5.402627936624    2.855393821965    0.000000000000
 C    4.530954451618    4.025242259856    0.000000000000
 H    5.214432548929    4.877656829533    0.000000000000
 H    3.908364875304    4.018904808408   -0.902521278793
 H    3.908364875304    4.018904808408    0.902521278793
 C    5.786489798852    0.535066905032    0.000000000000
 H    5.254640636717   -0.421364105724    0.000000000000
 H    6.431280057090    0.612204079091   -0.886459619024
 H    6.431280057090    0.612204079091    0.886459619024
