23

 C   -5.708479938072   -0.501289682427    0.000000000000
 C   -4.733859938072   -1.640309682427    0.000000000000
 O   -5.324619938072   -2.821609682427    0.000000000000
 C   -4.452949938072   -3.991469682427    0.000000000000
 O   -3.496689938072   -1.514129682427    0.000000000000
 H   -5.176629938072    0.455140317573    0.000000000000
 H   -6.353269938072   -0.578429682427    0.886460000000
 H   -6.353269938072   -0.578429682427   -0.886460000000
 H   -5.136419938072   -4.843879682427    0.000000000000
 H   -3.830359938072   -3.985129682427    0.902520000000
 H   -3.830359938072   -3.985129682427   -0.902520000000
LI   -1.835349938072   -0.794739682427    0.000000000000
 O    3.670617187710    1.589442779090    0.000000000000
 C    4.907779188692    1.715622808119    0.000000000000
 O    5.498545407645    2.896927806265    0.000000000000
 C    4.626871922639    4.066776244157    0.000000000000
 H    5.310350019949    4.919190813833    0.000000000000
 H    4.004282346324    4.060438792709   -0.902521278793
 H    4.004282346324    4.060438792709    0.902521278793
 C    5.882407269873    0.576600889333    0.000000000000
 H    5.350558107738   -0.379830121423    0.000000000000
 H    6.527197528111    0.653738063391   -0.886459619024
 H    6.527197528111    0.653738063391    0.886459619024
