23

 C   -5.883709471083   -0.577167211261    0.000000000000
 C   -4.909089471083   -1.716187211261    0.000000000000
 O   -5.499849471083   -2.897487211261    0.000000000000
 C   -4.628179471083   -4.067347211261    0.000000000000
 O   -3.671919471083   -1.590007211261    0.000000000000
 H   -5.351859471083    0.379262788739    0.000000000000
 H   -6.528499471083   -0.654307211261    0.886460000000
 H   -6.528499471083   -0.654307211261   -0.886460000000
 H   -5.311649471083   -4.919757211261    0.000000000000
 H   -4.005589471083   -4.061007211261    0.902520000000
 H   -4.005589471083   -4.061007211261   -0.902520000000
LI   -2.010579471083   -0.870617211261    0.000000000000
 O    3.862452129752    1.672510747691    0.000000000000
 C    5.099614130734    1.798690776720    0.000000000000
 O    5.690380349686    2.979995774866    0.000000000000
 C    4.818706864680    4.149844212757    0.000000000000
 H    5.502184961991    5.002258782434    0.000000000000
 H    4.196117288366    4.143506761310   -0.902521278793
 H    4.196117288366    4.143506761310    0.902521278793
 C    6.074242211914    0.659668857934    0.000000000000
 H    5.542393049779   -0.296762152823    0.000000000000
 H    6.719032470152    0.736806031992   -0.886459619024
 H    6.719032470152    0.736806031992    0.886459619024
