23

 C   -6.058939004093   -0.653044740094    0.000000000000
 C   -5.084319004093   -1.792064740094    0.000000000000
 O   -5.675079004093   -2.973364740094    0.000000000000
 C   -4.803409004093   -4.143224740094    0.000000000000
 O   -3.847149004093   -1.665884740094    0.000000000000
 H   -5.527089004093    0.303385259906    0.000000000000
 H   -6.703729004093   -0.730184740094    0.886460000000
 H   -6.703729004093   -0.730184740094   -0.886460000000
 H   -5.486879004093   -4.995634740094    0.000000000000
 H   -4.180819004093   -4.136884740094    0.902520000000
 H   -4.180819004093   -4.136884740094   -0.902520000000
LI   -2.185809004093   -0.946494740094    0.000000000000
 O    4.054287071793    1.755578716291    0.000000000000
 C    5.291449072775    1.881758745320    0.000000000000
 O    5.882215291728    3.063063743466    0.000000000000
 C    5.010541806722    4.232912181358    0.000000000000
 H    5.694019904032    5.085326751035    0.000000000000
 H    4.387952230407    4.226574729910   -0.902521278793
 H    4.387952230407    4.226574729910    0.902521278793
 C    6.266077153956    0.742736826534    0.000000000000
 H    5.734227991820   -0.213694184222    0.000000000000
 H    6.910867412194    0.819874000593   -0.886459619024
 H    6.910867412194    0.819874000593    0.886459619024
