23

 C   -6.190361153851   -0.709952886720    0.000000000000
 C   -5.215741153851   -1.848972886720    0.000000000000
 O   -5.806501153851   -3.030272886720    0.000000000000
 C   -4.934831153851   -4.200132886720    0.000000000000
 O   -3.978571153851   -1.722792886720    0.000000000000
 H   -5.658511153851    0.246477113280    0.000000000000
 H   -6.835151153851   -0.787092886720    0.886460000000
 H   -6.835151153851   -0.787092886720   -0.886460000000
 H   -5.618301153851   -5.052542886720    0.000000000000
 H   -4.312241153851   -4.193792886720    0.902520000000
 H   -4.312241153851   -4.193792886720   -0.902520000000
LI   -2.317231153851   -1.003402886720    0.000000000000
 O    4.198163278324    1.817879692742    0.000000000000
 C    5.435325279306    1.944059721771    0.000000000000
 O    6.026091498259    3.125364719917    0.000000000000
 C    5.154418013253    4.295213157809    0.000000000000
 H    5.837896110563    5.147627727485    0.000000000000
 H    4.531828436938    4.288875706361   -0.902521278793
 H    4.531828436938    4.288875706361    0.902521278793
 C    6.409953360487    0.805037802985    0.000000000000
 H    5.878104198352   -0.151393207771    0.000000000000
 H    7.054743618725    0.882174977043   -0.886459619024
 H    7.054743618725    0.882174977043    0.886459619024
