23

 C   -6.365590686862   -0.785830415553    0.000000000000
 C   -5.390970686862   -1.924850415553    0.000000000000
 O   -5.981730686862   -3.106150415553    0.000000000000
 C   -5.110060686862   -4.276010415553    0.000000000000
 O   -4.153800686862   -1.798670415553    0.000000000000
 H   -5.833740686862    0.170599584447    0.000000000000
 H   -7.010380686862   -0.862970415553    0.886460000000
 H   -7.010380686862   -0.862970415553   -0.886460000000
 H   -5.793530686862   -5.128420415553    0.000000000000
 H   -4.487470686862   -4.269670415553    0.902520000000
 H   -4.487470686862   -4.269670415553   -0.902520000000
LI   -2.492460686862   -1.079280415553    0.000000000000
 O    4.389998220366    1.900947661343    0.000000000000
 C    5.627160221348    2.027127690372    0.000000000000
 O    6.217926440300    3.208432688518    0.000000000000
 C    5.346252955294    4.378281126409    0.000000000000
 H    6.029731052605    5.230695696086    0.000000000000
 H    4.723663378980    4.371943674962   -0.902521278793
 H    4.723663378980    4.371943674962    0.902521278793
 C    6.601788302528    0.888105771586    0.000000000000
 H    6.069939140393   -0.068325239170    0.000000000000
 H    7.246578560766    0.965242945644   -0.886459619024
 H    7.246578560766    0.965242945644    0.886459619024
