23

 C   -6.497012836620   -0.842738562179    0.000000000000
 C   -5.522392836620   -1.981758562179    0.000000000000
 O   -6.113152836620   -3.163058562179    0.000000000000
 C   -5.241482836620   -4.332918562179    0.000000000000
 O   -4.285222836620   -1.855578562179    0.000000000000
 H   -5.965162836620    0.113691437821    0.000000000000
 H   -7.141802836620   -0.919878562179    0.886460000000
 H   -7.141802836620   -0.919878562179   -0.886460000000
 H   -5.924952836620   -5.185328562179    0.000000000000
 H   -4.618892836620   -4.326578562179    0.902520000000
 H   -4.618892836620   -4.326578562179   -0.902520000000
LI   -2.623882836620   -1.136188562179    0.000000000000
 O    4.533874426897    1.963248637793    0.000000000000
 C    5.771036427879    2.089428666822    0.000000000000
 O    6.361802646831    3.270733664968    0.000000000000
 C    5.490129161825    4.440582102860    0.000000000000
 H    6.173607259136    5.292996672536    0.000000000000
 H    4.867539585511    4.434244651412   -0.902521278793
 H    4.867539585511    4.434244651412    0.902521278793
 C    6.745664509059    0.950406748036    0.000000000000
 H    6.213815346924   -0.006024262720    0.000000000000
 H    7.390454767297    1.027543922095   -0.886459619024
 H    7.390454767297    1.027543922095    0.886459619024
