23

 C   -6.716049752883   -0.937585473221    0.000000000000
 C   -5.741429752883   -2.076605473221    0.000000000000
 O   -6.332189752883   -3.257905473221    0.000000000000
 C   -5.460519752883   -4.427765473221    0.000000000000
 O   -4.504259752883   -1.950425473221    0.000000000000
 H   -6.184199752883    0.018844526779    0.000000000000
 H   -7.360839752883   -1.014725473221    0.886460000000
 H   -7.360839752883   -1.014725473221   -0.886460000000
 H   -6.143989752883   -5.280175473221    0.000000000000
 H   -4.837929752883   -4.421425473221    0.902520000000
 H   -4.837929752883   -4.421425473221   -0.902520000000
LI   -2.842919752883   -1.231035473221    0.000000000000
 O    4.773668104449    2.067083598544    0.000000000000
 C    6.010830105431    2.193263627573    0.000000000000
 O    6.601596324383    3.374568625719    0.000000000000
 C    5.729922839377    4.544417063611    0.000000000000
 H    6.413400936688    5.396831633287    0.000000000000
 H    5.107333263063    4.538079612163   -0.902521278793
 H    5.107333263063    4.538079612163    0.902521278793
 C    6.985458186611    1.054241708787    0.000000000000
 H    6.453609024476    0.097810698031    0.000000000000
 H    7.630248444849    1.131378882846   -0.886459619024
 H    7.630248444849    1.131378882846    0.886459619024
