23

 C   -6.891279285894   -1.013463002055    0.000000000000
 C   -5.916659285894   -2.152483002055    0.000000000000
 O   -6.507419285894   -3.333783002055    0.000000000000
 C   -5.635749285894   -4.503643002055    0.000000000000
 O   -4.679489285894   -2.026303002055    0.000000000000
 H   -6.359429285894   -0.057033002055    0.000000000000
 H   -7.536069285894   -1.090603002055    0.886460000000
 H   -7.536069285894   -1.090603002055   -0.886460000000
 H   -6.319219285894   -5.356053002055    0.000000000000
 H   -5.013159285894   -4.497303002055    0.902520000000
 H   -5.013159285894   -4.497303002055   -0.902520000000
LI   -3.018149285894   -1.306913002055    0.000000000000
 O    4.965503046490    2.150151567145    0.000000000000
 C    6.202665047472    2.276331596174    0.000000000000
 O    6.793431266425    3.457636594320    0.000000000000
 C    5.921757781419    4.627485032212    0.000000000000
 H    6.605235878729    5.479899601888    0.000000000000
 H    5.299168205104    4.621147580764   -0.902521278793
 H    5.299168205104    4.621147580764    0.902521278793
 C    7.177293128652    1.137309677388    0.000000000000
 H    6.645443966517    0.180878666632    0.000000000000
 H    7.822083386891    1.214446851446   -0.886459619024
 H    7.822083386891    1.214446851446    0.886459619024
