23

 C   -6.935086669147   -1.032432384263    0.000000000000
 C   -5.960466669147   -2.171452384263    0.000000000000
 O   -6.551226669147   -3.352752384263    0.000000000000
 C   -5.679556669147   -4.522612384263    0.000000000000
 O   -4.723296669147   -2.045272384263    0.000000000000
 H   -6.403236669147   -0.076002384263    0.000000000000
 H   -7.579876669147   -1.109572384263    0.886460000000
 H   -7.579876669147   -1.109572384263   -0.886460000000
 H   -6.363026669147   -5.375022384263    0.000000000000
 H   -5.056966669147   -4.516272384263    0.902520000000
 H   -5.056966669147   -4.516272384263   -0.902520000000
LI   -3.061956669147   -1.325882384263    0.000000000000
 O    5.013461782000    2.170918559295    0.000000000000
 C    6.250623782983    2.297098588324    0.000000000000
 O    6.841390001935    3.478403586470    0.000000000000
 C    5.969716516929    4.648252024362    0.000000000000
 H    6.653194614240    5.500666594038    0.000000000000
 H    5.347126940615    4.641914572914   -0.902521278793
 H    5.347126940615    4.641914572914    0.902521278793
 C    7.225251864163    1.158076669538    0.000000000000
 H    6.693402702028    0.201645658782    0.000000000000
 H    7.870042122401    1.235213843597   -0.886459619024
 H    7.870042122401    1.235213843597    0.886459619024
