23

 C   -7.022701435652   -1.070371148680    0.000000000000
 C   -6.048081435652   -2.209391148680    0.000000000000
 O   -6.638841435652   -3.390691148680    0.000000000000
 C   -5.767171435652   -4.560551148680    0.000000000000
 O   -4.810911435652   -2.083211148680    0.000000000000
 H   -6.490851435652   -0.113941148680    0.000000000000
 H   -7.667491435652   -1.147511148680    0.886460000000
 H   -7.667491435652   -1.147511148680   -0.886460000000
 H   -6.450641435652   -5.412961148680    0.000000000000
 H   -5.144581435652   -4.554211148680    0.902520000000
 H   -5.144581435652   -4.554211148680   -0.902520000000
LI   -3.149571435652   -1.363821148680    0.000000000000
 O    5.109379253021    2.212452543596    0.000000000000
 C    6.346541254003    2.338632572625    0.000000000000
 O    6.937307472956    3.519937570771    0.000000000000
 C    6.065633987950    4.689786008662    0.000000000000
 H    6.749112085260    5.542200578339    0.000000000000
 H    5.443044411635    4.683448557215   -0.902521278793
 H    5.443044411635    4.683448557215    0.902521278793
 C    7.321169335184    1.199610653839    0.000000000000
 H    6.789320173048    0.243179643082    0.000000000000
 H    7.965959593422    1.276747827897   -0.886459619024
 H    7.965959593422    1.276747827897    0.886459619024
