23

 C   -7.110316202158   -1.108309913097    0.000000000000
 C   -6.135696202158   -2.247329913097    0.000000000000
 O   -6.726456202158   -3.428629913097    0.000000000000
 C   -5.854786202158   -4.598489913097    0.000000000000
 O   -4.898526202158   -2.121149913097    0.000000000000
 H   -6.578466202158   -0.151879913097    0.000000000000
 H   -7.755106202158   -1.185449913097    0.886460000000
 H   -7.755106202158   -1.185449913097   -0.886460000000
 H   -6.538256202158   -5.450899913097    0.000000000000
 H   -5.232196202158   -4.592149913097    0.902520000000
 H   -5.232196202158   -4.592149913097   -0.902520000000
LI   -3.237186202158   -1.401759913097    0.000000000000
 O    5.205296724042    2.253986527896    0.000000000000
 C    6.442458725024    2.380166556925    0.000000000000
 O    7.033224943976    3.561471555071    0.000000000000
 C    6.161551458970    4.731319992963    0.000000000000
 H    6.845029556281    5.583734562639    0.000000000000
 H    5.538961882656    4.724982541515   -0.902521278793
 H    5.538961882656    4.724982541515    0.902521278793
 C    7.417086806204    1.241144638139    0.000000000000
 H    6.885237644069    0.284713627383    0.000000000000
 H    8.061877064443    1.318281812197   -0.886459619024
 H    8.061877064443    1.318281812197    0.886459619024
