23

 C   -7.154123585410   -1.127279295305    0.000000000000
 C   -6.179503585410   -2.266299295305    0.000000000000
 O   -6.770263585410   -3.447599295305    0.000000000000
 C   -5.898593585410   -4.617459295305    0.000000000000
 O   -4.942333585410   -2.140119295305    0.000000000000
 H   -6.622273585410   -0.170849295305    0.000000000000
 H   -7.798913585410   -1.204419295305    0.886460000000
 H   -7.798913585410   -1.204419295305   -0.886460000000
 H   -6.582063585410   -5.469869295305    0.000000000000
 H   -5.276003585410   -4.611119295305    0.902520000000
 H   -5.276003585410   -4.611119295305   -0.902520000000
LI   -3.280993585410   -1.420729295305    0.000000000000
 O    5.253255459552    2.274753520046    0.000000000000
 C    6.490417460534    2.400933549075    0.000000000000
 O    7.081183679487    3.582238547221    0.000000000000
 C    6.209510194481    4.752086985113    0.000000000000
 H    6.892988291791    5.604501554789    0.000000000000
 H    5.586920618166    4.745749533665   -0.902521278793
 H    5.586920618166    4.745749533665    0.902521278793
 C    7.465045541715    1.261911630289    0.000000000000
 H    6.933196379580    0.305480619533    0.000000000000
 H    8.109835799953    1.339048804348   -0.886459619024
 H    8.109835799953    1.339048804348    0.886459619024
