23

 C   -7.197930968663   -1.146248677513    0.000000000000
 C   -6.223310968663   -2.285268677513    0.000000000000
 O   -6.814070968663   -3.466568677513    0.000000000000
 C   -5.942400968663   -4.636428677513    0.000000000000
 O   -4.986140968663   -2.159088677513    0.000000000000
 H   -6.666080968663   -0.189818677513    0.000000000000
 H   -7.842720968663   -1.223388677513    0.886460000000
 H   -7.842720968663   -1.223388677513   -0.886460000000
 H   -6.625870968663   -5.488838677513    0.000000000000
 H   -5.319810968663   -4.630088677513    0.902520000000
 H   -5.319810968663   -4.630088677513   -0.902520000000
LI   -3.324800968663   -1.439698677513    0.000000000000
 O    5.301214195063    2.295520512196    0.000000000000
 C    6.538376196045    2.421700541225    0.000000000000
 O    7.129142414997    3.603005539371    0.000000000000
 C    6.257468929991    4.772853977263    0.000000000000
 H    6.940947027302    5.625268546940    0.000000000000
 H    5.634879353677    4.766516525815   -0.902521278793
 H    5.634879353677    4.766516525815    0.902521278793
 C    7.513004277225    1.282678622439    0.000000000000
 H    6.981155115090    0.326247611683    0.000000000000
 H    8.157794535463    1.359815796498   -0.886459619024
 H    8.157794535463    1.359815796498    0.886459619024
