23

 C   -7.241738351916   -1.165218059722    0.000000000000
 C   -6.267118351916   -2.304238059722    0.000000000000
 O   -6.857878351916   -3.485538059722    0.000000000000
 C   -5.986208351916   -4.655398059722    0.000000000000
 O   -5.029948351916   -2.178058059722    0.000000000000
 H   -6.709888351916   -0.208788059722    0.000000000000
 H   -7.886528351916   -1.242358059722    0.886460000000
 H   -7.886528351916   -1.242358059722   -0.886460000000
 H   -6.669678351916   -5.507808059722    0.000000000000
 H   -5.363618351916   -4.649058059722    0.902520000000
 H   -5.363618351916   -4.649058059722   -0.902520000000
LI   -3.368608351916   -1.458668059722    0.000000000000
 O    5.349172930573    2.316287504347    0.000000000000
 C    6.586334931555    2.442467533376    0.000000000000
 O    7.177101150508    3.623772531522    0.000000000000
 C    6.305427665502    4.793620969413    0.000000000000
 H    6.988905762812    5.646035539090    0.000000000000
 H    5.682838089187    4.787283517966   -0.902521278793
 H    5.682838089187    4.787283517966    0.902521278793
 C    7.560963012735    1.303445614590    0.000000000000
 H    7.029113850600    0.347014603833    0.000000000000
 H    8.205753270974    1.380582788648   -0.886459619024
 H    8.205753270974    1.380582788648    0.886459619024
