23

 C   -7.329353118421   -1.203156824139    0.000000000000
 C   -6.354733118421   -2.342176824139    0.000000000000
 O   -6.945493118421   -3.523476824139    0.000000000000
 C   -6.073823118421   -4.693336824139    0.000000000000
 O   -5.117563118421   -2.215996824139    0.000000000000
 H   -6.797503118421   -0.246726824139    0.000000000000
 H   -7.974143118421   -1.280296824139    0.886460000000
 H   -7.974143118421   -1.280296824139   -0.886460000000
 H   -6.757293118421   -5.545746824139    0.000000000000
 H   -5.451233118421   -4.686996824139    0.902520000000
 H   -5.451233118421   -4.686996824139   -0.902520000000
LI   -3.456223118421   -1.496606824139    0.000000000000
 O    5.445090401594    2.357821488647    0.000000000000
 C    6.682252402576    2.484001517676    0.000000000000
 O    7.273018621528    3.665306515822    0.000000000000
 C    6.401345136522    4.835154953714    0.000000000000
 H    7.084823233833    5.687569523390    0.000000000000
 H    5.778755560208    4.828817502266   -0.902521278793
 H    5.778755560208    4.828817502266    0.902521278793
 C    7.656880483756    1.344979598890    0.000000000000
 H    7.125031321621    0.388548588134    0.000000000000
 H    8.301670741994    1.422116772948   -0.886459619024
 H    8.301670741994    1.422116772948    0.886459619024
