23

 C   -7.373160501674   -1.222126206347    0.000000000000
 C   -6.398540501674   -2.361146206347    0.000000000000
 O   -6.989300501674   -3.542446206347    0.000000000000
 C   -6.117630501674   -4.712306206347    0.000000000000
 O   -5.161370501674   -2.234966206347    0.000000000000
 H   -6.841310501674   -0.265696206347    0.000000000000
 H   -8.017950501674   -1.299266206347    0.886460000000
 H   -8.017950501674   -1.299266206347   -0.886460000000
 H   -6.801100501674   -5.564716206347    0.000000000000
 H   -5.495040501674   -4.705966206347    0.902520000000
 H   -5.495040501674   -4.705966206347   -0.902520000000
LI   -3.500030501674   -1.515576206347    0.000000000000
 O    5.493049137104    2.378588480797    0.000000000000
 C    6.730211138086    2.504768509826    0.000000000000
 O    7.320977357039    3.686073507972    0.000000000000
 C    6.449303872033    4.855921945864    0.000000000000
 H    7.132781969343    5.708336515540    0.000000000000
 H    5.826714295718    4.849584494416   -0.902521278793
 H    5.826714295718    4.849584494416    0.902521278793
 C    7.704839219266    1.365746591040    0.000000000000
 H    7.172990057131    0.409315580284    0.000000000000
 H    8.349629477505    1.442883765099   -0.886459619024
 H    8.349629477505    1.442883765099    0.886459619024
