16

 N   -1.071301567721    1.487078429720    0.040276900870
 C    0.299313844688    1.686553107561    0.036645266494
 H    0.621098141026    2.730298038437    0.058064082187
 C   -1.671016837150    0.233963270167    0.015746910214
 O   -2.888790868682    0.067020564100    0.016742990988
 N   -0.745710821539   -0.802814339675   -0.011909626775
 H   -1.140284529402   -1.741328649524   -0.032418500173
 C    0.660019556856   -0.716775627357   -0.020357677566
 O    1.348340229284   -1.740392849159   -0.048465616119
 C    1.189788737921    0.651613241377    0.008248691568
 C    2.682078631527    0.835471566839    0.003417881742
 H    2.943626260607    1.903899443707    0.026072049889
 H    3.122222945117    0.377151347417   -0.895690369704
 H    3.133083838236    0.336985081533    0.875354718655
 H   -1.713607791050    2.271331467894    0.060172319160
LI    0.732650592511   -2.997517840758   -0.072193799119
