16

 N   -1.066663793875    1.496547910866    0.040455636941
 C    0.303951618534    1.696022588707    0.036824002565
 H    0.625735914872    2.739767519583    0.058242818258
 C   -1.666379063304    0.243432751313    0.015925646285
 O   -2.884153094836    0.076490045246    0.016921727059
 N   -0.741073047693   -0.793344858529   -0.011730890704
 H   -1.135646755556   -1.731859168378   -0.032239764102
 C    0.664657330702   -0.707306146211   -0.020178941495
 O    1.352978003130   -1.730923368013   -0.048286880048
 C    1.194426511767    0.661082722523    0.008427427639
 C    2.686716405373    0.844941047985    0.003596617813
 H    2.948264034453    1.913368924853    0.026250785960
 H    3.126860718963    0.386620828563   -0.895511633633
 H    3.137721612082    0.346454562679    0.875533454726
 H   -1.708970017204    2.280800949040    0.060351055231
LI    0.649332703961   -3.167637644125   -0.075404803477
