16

 N   -1.059707133106    1.510752132586    0.040723741047
 C    0.310908279303    1.710226810427    0.037092106671
 H    0.632692575641    2.753971741303    0.058510922364
 C   -1.659422402535    0.257636973033    0.016193750391
 O   -2.877196434067    0.090694266966    0.017189831165
 N   -0.734116386924   -0.779140636809   -0.011462786598
 H   -1.128690094787   -1.717654946658   -0.031971659996
 C    0.671613991471   -0.693101924491   -0.019910837389
 O    1.359934663899   -1.716719146293   -0.048018775942
 C    1.201383172536    0.675286944243    0.008695531745
 C    2.693673066142    0.859145269705    0.003864721919
 H    2.955220695222    1.927573146573    0.026518890066
 H    3.133817379732    0.400825050283   -0.895243529527
 H    3.144678272851    0.360658784399    0.875801558832
 H   -1.702013356435    2.295005170760    0.060619159337
LI    0.524355871136   -3.422817349177   -0.080221310014
