16

 N   -0.871877292331    1.894266119021    0.047962551916
 C    0.498738120078    2.093740796862    0.044330917540
 H    0.820522416416    3.137485727738    0.065749733233
 C   -1.471592561760    0.641150959468    0.023432561260
 O   -2.689366593292    0.474208253401    0.024428642034
 N   -0.546286546149   -0.395626650374   -0.004223975729
 H   -0.940860254012   -1.334140960223   -0.024732849127
 C    0.859443832246   -0.309587938056   -0.012672026520
 O    1.547764504674   -1.333205159858   -0.040779965073
 C    1.389213013311    1.058800930678    0.015934342614
 C    2.881502906917    1.242659256140    0.011103532788
 H    3.143050535997    2.311087133008    0.033757700935
 H    3.321647220507    0.784339036718   -0.888004718658
 H    3.332508113626    0.744172770834    0.883040369701
 H   -1.514183515660    2.678519157195    0.067857970206
LI   -2.850018615134  -10.312669385562   -0.210266986502
