16

 N   -1.050431585413    1.529691094879    0.041081213188
 C    0.320183826996    1.729165772720    0.037449578812
 H    0.641968123334    2.772910703596    0.058868394505
 C   -1.650146854842    0.276575935326    0.016551222532
 O   -2.867920886374    0.109633229259    0.017547303306
 N   -0.724840839231   -0.760201674516   -0.011105314457
 H   -1.119414547094   -1.698715984365   -0.031614187855
 C    0.680889539164   -0.674162962198   -0.019553365248
 O    1.369210211592   -1.697780184000   -0.047661303801
 C    1.210658720229    0.694225906536    0.009053003886
 C    2.702948613835    0.878084231998    0.004222194060
 H    2.964496242915    1.946512108866    0.026876362207
 H    3.143092927425    0.419764012576   -0.894886057386
 H    3.153953820544    0.379597746692    0.876159030973
 H   -1.692737808742    2.313944133053    0.060976631478
LI    0.357720094036   -3.763056955912   -0.086643318729
