16

 N   -1.048112698490    1.534425835452    0.041170581224
 C    0.322502713919    1.733900513293    0.037538946848
 H    0.644287010257    2.777645444169    0.058957762541
 C   -1.647827967919    0.281310675899    0.016640590568
 O   -2.865601999451    0.114367969832    0.017636671342
 N   -0.722521952308   -0.755466933943   -0.011015946421
 H   -1.117095660171   -1.693981243792   -0.031524819819
 C    0.683208426087   -0.669428221625   -0.019463997212
 O    1.371529098515   -1.693045443427   -0.047571935765
 C    1.212977607152    0.698960647109    0.009142371922
 C    2.705267500758    0.882818972571    0.004311562096
 H    2.966815129838    1.951246849439    0.026965730243
 H    3.145411814348    0.424498753149   -0.894796689350
 H    3.156272707467    0.384332487265    0.876248399009
 H   -1.690418921819    2.318678873626    0.061065999514
LI    0.316061149761   -3.848116857596   -0.088248820908
