16

 N   -1.045793811567    1.539160576026    0.041259949259
 C    0.324821600842    1.738635253867    0.037628314883
 H    0.646605897180    2.782380184743    0.059047130576
 C   -1.645509080996    0.286045416473    0.016729958603
 O   -2.863283112528    0.119102710406    0.017726039377
 N   -0.720203065385   -0.750732193369   -0.010926578386
 H   -1.114776773248   -1.689246503218   -0.031435451784
 C    0.685527313010   -0.664693481051   -0.019374629177
 O    1.373847985438   -1.688310702853   -0.047482567730
 C    1.215296494075    0.703695387683    0.009231739957
 C    2.707586387681    0.887553713145    0.004400930131
 H    2.969134016761    1.955981590013    0.027055098278
 H    3.147730701271    0.429233493723   -0.894707321315
 H    3.158591594390    0.389067227839    0.876337767044
 H   -1.688100034896    2.323413614200    0.061155367549
LI    0.274402205486   -3.933176759279   -0.089854323087
