16

 N   -1.041156037721    1.548630057172    0.041438685330
 C    0.329459374688    1.748104735013    0.037807050954
 H    0.651243671026    2.791849665889    0.059225866647
 C   -1.640871307150    0.295514897619    0.016908694674
 O   -2.858645338682    0.128572191552    0.017904775448
 N   -0.715565291539   -0.741262712223   -0.010747842315
 H   -1.110138999402   -1.679777022072   -0.031256715713
 C    0.690165086856   -0.655223999905   -0.019195893106
 O    1.378485759284   -1.678841221707   -0.047303831659
 C    1.219934267921    0.713164868829    0.009410476028
 C    2.712224161527    0.897023194291    0.004579666202
 H    2.973771790607    1.965451071159    0.027233834349
 H    3.152368475117    0.438702974869   -0.894528585244
 H    3.163229368236    0.398536708985    0.876516503115
 H   -1.683462261050    2.332883095346    0.061334103620
LI    0.191084316936   -4.103296562647   -0.093065327445
