16

 N   -1.031880490028    1.567569019465    0.041796157472
 C    0.338734922381    1.767043697306    0.038164523096
 H    0.660519218719    2.810788628182    0.059583338789
 C   -1.631595759457    0.314453859912    0.017266166816
 O   -2.849369790989    0.147511153845    0.018262247590
 N   -0.706289743846   -0.722323749930   -0.010390370173
 H   -1.100863451709   -1.660838059779   -0.030899243571
 C    0.699440634549   -0.636285037612   -0.018838420964
 O    1.387761306977   -1.659902259414   -0.046946359517
 C    1.229209815614    0.732103831122    0.009767948170
 C    2.721499709220    0.915962156584    0.004937138344
 H    2.983047338300    1.984390033452    0.027591306491
 H    3.161644022810    0.457641937162   -0.894171113102
 H    3.172504915929    0.417475671278    0.876873975257
 H   -1.674186713357    2.351822057639    0.061691575762
LI    0.024448539837   -4.443536169382   -0.099487336160
