16

 N   -1.029561603105    1.572303760038    0.041885525507
 C    0.341053809304    1.771778437879    0.038253891131
 H    0.662838105642    2.815523368755    0.059672706824
 C   -1.629276872534    0.319188600485    0.017355534851
 O   -2.847050904066    0.152245894418    0.018351615625
 N   -0.703970856923   -0.717589009357   -0.010301002138
 H   -1.098544564786   -1.656103319206   -0.030809875536
 C    0.701759521472   -0.631550297039   -0.018749052929
 O    1.390080193900   -1.655167518841   -0.046856991482
 C    1.231528702537    0.736838571695    0.009857316205
 C    2.723818596143    0.920696897157    0.005026506379
 H    2.985366225223    1.989124774025    0.027680674526
 H    3.163962909733    0.462376677735   -0.894081745067
 H    3.174823802852    0.422210411851    0.876963343292
 H   -1.671867826434    2.356556798212    0.061780943797
LI   -0.017210404438   -4.528596071066   -0.101092838339
