16

 N   -1.020286055412    1.591242722332    0.042242997649
 C    0.350329356997    1.790717400173    0.038611363273
 H    0.672113653335    2.834462331049    0.060030178966
 C   -1.620001324841    0.338127562779    0.017713006993
 O   -2.837775356373    0.171184856712    0.018709087767
 N   -0.694695309230   -0.698650047063   -0.009943529996
 H   -1.089269017093   -1.637164356912   -0.030452403394
 C    0.711035069165   -0.612611334745   -0.018391580787
 O    1.399355741593   -1.636228556547   -0.046499519340
 C    1.240804250230    0.755777533989    0.010214788347
 C    2.733094143836    0.939635859451    0.005383978521
 H    2.994641772916    2.008063736319    0.028038146668
 H    3.173238457426    0.481315640029   -0.893724272925
 H    3.184099350545    0.441149374145    0.877320815434
 H   -1.662592278741    2.375495760506    0.062138415939
LI   -0.183846181538   -4.868835677801   -0.107514847055
