16

 N   -1.008691620797    1.614916425198    0.042689837826
 C    0.361923791612    1.814391103039    0.039058203450
 H    0.683708087950    2.858136033915    0.060477019143
 C   -1.608406890226    0.361801265645    0.018159847170
 O   -2.826180921758    0.194858559578    0.019155927944
 N   -0.683100874615   -0.674976344197   -0.009496689819
 H   -1.077674582478   -1.613490654046   -0.030005563217
 C    0.722629503780   -0.588937631879   -0.017944740610
 O    1.410950176208   -1.612554853681   -0.046052679163
 C    1.252398684845    0.779451236855    0.010661628524
 C    2.744688578451    0.963309562317    0.005830818698
 H    3.006236207531    2.031737439185    0.028484986845
 H    3.184832892041    0.504989342895   -0.893277432748
 H    3.195693785160    0.464823077011    0.877767655611
 H   -1.650997844126    2.399169463372    0.062585256116
LI   -0.392140902913   -5.294135186220   -0.115542357949
