16

 N   -1.001734960027    1.629120646918    0.042957941932
 C    0.368880452382    1.828595324759    0.039326307556
 H    0.690664748720    2.872340255635    0.060745123249
 C   -1.601450229456    0.376005487365    0.018427951276
 O   -2.819224260988    0.209062781298    0.019424032050
 N   -0.676144213845   -0.660772122477   -0.009228585713
 H   -1.070717921708   -1.599286432326   -0.029737459111
 C    0.729586164550   -0.574733410159   -0.017676636504
 O    1.417906836978   -1.598350631961   -0.045784575057
 C    1.259355345615    0.793655458575    0.010929732630
 C    2.751645239221    0.977513784037    0.006098922804
 H    3.013192868301    2.045941660905    0.028753090951
 H    3.191789552811    0.519193564615   -0.893009328642
 H    3.202650445930    0.479027298731    0.878035759717
 H   -1.644041183356    2.413373685092    0.062853360222
LI   -0.517117735738   -5.549314891271   -0.120358864486
