16

 N   -0.999416073104    1.633855387491    0.043047309968
 C    0.371199339305    1.833330065332    0.039415675592
 H    0.692983635643    2.877074996208    0.060834491285
 C   -1.599131342533    0.380740227938    0.018517319312
 O   -2.816905374065    0.213797521871    0.019513400086
 N   -0.673825326922   -0.656037381904   -0.009139217677
 H   -1.068399034785   -1.594551691753   -0.029648091075
 C    0.731905051473   -0.569998669586   -0.017587268468
 O    1.420225723901   -1.593615891388   -0.045695207021
 C    1.261674232538    0.798390199148    0.011019100666
 C    2.753964126144    0.982248524610    0.006188290840
 H    3.015511755224    2.050676401478    0.028842458987
 H    3.194108439734    0.523928305188   -0.892919960606
 H    3.204969332853    0.483762039304    0.878125127753
 H   -1.641722296433    2.418108425665    0.062942728258
LI   -0.558776680013   -5.634374792955   -0.121964366664
