16

 N   -0.997097186181    1.638590128064    0.043136678003
 C    0.373518226228    1.838064805905    0.039505043627
 H    0.695302522566    2.881809736781    0.060923859320
 C   -1.596812455610    0.385474968511    0.018606687347
 O   -2.814586487142    0.218532262444    0.019602768121
 N   -0.671506439999   -0.651302641331   -0.009049849642
 H   -1.066080147862   -1.589816951180   -0.029558723040
 C    0.734223938396   -0.565263929013   -0.017497900433
 O    1.422544610824   -1.588881150815   -0.045605838986
 C    1.263993119461    0.803124939721    0.011108468701
 C    2.756283013067    0.986983265183    0.006277658875
 H    3.017830642147    2.055411142051    0.028931827022
 H    3.196427326657    0.528663045761   -0.892830592571
 H    3.207288219776    0.488496779877    0.878214495788
 H   -1.639403409510    2.422843166238    0.063032096293
LI   -0.600435624288   -5.719434694639   -0.123569868843
