16

 N   -0.992459412335    1.648059609211    0.043315414074
 C    0.378156000074    1.847534287052    0.039683779698
 H    0.699940296412    2.891279217928    0.061102595391
 C   -1.592174681764    0.394944449658    0.018785423418
 O   -2.809948713296    0.228001743591    0.019781504192
 N   -0.666868666153   -0.641833160184   -0.008871113571
 H   -1.061442374016   -1.580347470033   -0.029379986969
 C    0.738861712242   -0.555794447866   -0.017319164362
 O    1.427182384670   -1.579411669668   -0.045427102915
 C    1.268630893307    0.812594420868    0.011287204772
 C    2.760920786913    0.996452746330    0.006456394946
 H    3.022468415993    2.064880623198    0.029110563093
 H    3.201065100503    0.538132526908   -0.892651856500
 H    3.211925993622    0.497966261024    0.878393231859
 H   -1.634765635664    2.432312647385    0.063210832364
LI   -0.683753512837   -5.889554498006   -0.126780873201
