16

 N   -0.990140525411    1.652794349784    0.043404782109
 C    0.380474886998    1.852269027625    0.039773147733
 H    0.702259183336    2.896013958501    0.061191963426
 C   -1.589855794840    0.399679190231    0.018874791453
 O   -2.807629826372    0.232736484164    0.019870872227
 N   -0.664549779229   -0.637098419611   -0.008781745536
 H   -1.059123487092   -1.575612729460   -0.029290618934
 C    0.741180599166   -0.551059707293   -0.017229796327
 O    1.429501271594   -1.574676929095   -0.045337734880
 C    1.270949780231    0.817329161441    0.011376572807
 C    2.763239673837    1.001187486903    0.006545762981
 H    3.024787302917    2.069615363771    0.029199931128
 H    3.203383987427    0.542867267481   -0.892562488465
 H    3.214244880546    0.502701001597    0.878482599894
 H   -1.632446748740    2.437047387958    0.063300200399
LI   -0.725412457112   -5.974614399690   -0.128386375380
