16

 N   -0.987821638488    1.657529090357    0.043494150145
 C    0.382793773921    1.857003768198    0.039862515769
 H    0.704578070259    2.900748699074    0.061281331462
 C   -1.587536907917    0.404413930804    0.018964159489
 O   -2.805310939449    0.237471224737    0.019960240263
 N   -0.662230892306   -0.632363679038   -0.008692377500
 H   -1.056804600169   -1.570877988887   -0.029201250898
 C    0.743499486089   -0.546324966720   -0.017140428291
 O    1.431820158517   -1.569942188522   -0.045248366844
 C    1.273268667154    0.822063902014    0.011465940843
 C    2.765558560760    1.005922227476    0.006635131017
 H    3.027106189840    2.074350104344    0.029289299164
 H    3.205702874350    0.547602008054   -0.892473120429
 H    3.216563767469    0.507435742170    0.878571967930
 H   -1.630127861817    2.441782128531    0.063389568435
LI   -0.767071401387   -6.059674301374   -0.129991877559
