16

 N   -0.985502751565    1.662263830931    0.043583518180
 C    0.385112660844    1.861738508772    0.039951883804
 H    0.706896957182    2.905483439648    0.061370699497
 C   -1.585218020994    0.409148671378    0.019053527524
 O   -2.802992052526    0.242205965311    0.020049608298
 N   -0.659912005383   -0.627628938464   -0.008603009465
 H   -1.054485713246   -1.566143248313   -0.029111882863
 C    0.745818373012   -0.541590226146   -0.017051060256
 O    1.434139045440   -1.565207447948   -0.045158998809
 C    1.275587554077    0.826798642588    0.011555308878
 C    2.767877447683    1.010656968050    0.006724499052
 H    3.029425076763    2.079084844918    0.029378667199
 H    3.208021761273    0.552336748628   -0.892383752394
 H    3.218882654392    0.512170482744    0.878661335965
 H   -1.627808974894    2.446516869105    0.063478936470
LI   -0.808730345662   -6.144734203058   -0.131597379738
