16

 N   -0.983183864642    1.666998571504    0.043672886216
 C    0.387431547767    1.866473249345    0.040041251840
 H    0.709215844105    2.910218180221    0.061460067533
 C   -1.582899134071    0.413883411951    0.019142895560
 O   -2.800673165603    0.246940705884    0.020138976334
 N   -0.657593118460   -0.622894197891   -0.008513641429
 H   -1.052166826323   -1.561408507740   -0.029022514827
 C    0.748137259935   -0.536855485573   -0.016961692220
 O    1.436457932363   -1.560472707375   -0.045069630773
 C    1.277906441000    0.831533383161    0.011644676914
 C    2.770196334606    1.015391708623    0.006813867088
 H    3.031743963686    2.083819585491    0.029468035235
 H    3.210340648196    0.557071489201   -0.892294384358
 H    3.221201541315    0.516905223317    0.878750704001
 H   -1.625490087971    2.451251609678    0.063568304506
LI   -0.850389289937   -6.229794104741   -0.133202881917
