16

 N   -0.978546090796    1.676468052650    0.043851622287
 C    0.392069321613    1.875942730491    0.040219987911
 H    0.713853617951    2.919687661367    0.061638803604
 C   -1.578261360225    0.423352893097    0.019321631631
 O   -2.796035391757    0.256410187030    0.020317712405
 N   -0.652955344614   -0.613424716745   -0.008334905358
 H   -1.047529052477   -1.551939026594   -0.028843778756
 C    0.752775033781   -0.527386004427   -0.016782956149
 O    1.441095706209   -1.551003226229   -0.044890894702
 C    1.282544214846    0.841002864307    0.011823412985
 C    2.774834108452    1.024861189769    0.006992603159
 H    3.036381737532    2.093289066637    0.029646771306
 H    3.214978422042    0.566540970347   -0.892115648287
 H    3.225839315161    0.526374704463    0.878929440072
 H   -1.620852314125    2.460721090824    0.063747040577
LI   -0.933707178487   -6.399913908109   -0.136413886274
