16

 N   -0.971589430026    1.690672274370    0.044119726393
 C    0.399025982383    1.890146952211    0.040488092017
 H    0.720810278721    2.933891883087    0.061906907710
 C   -1.571304699455    0.437557114817    0.019589735737
 O   -2.789078730987    0.270614408750    0.020585816511
 N   -0.645998683844   -0.599220495025   -0.008066801252
 H   -1.040572391707   -1.537734804874   -0.028575674650
 C    0.759731694551   -0.513181782707   -0.016514852043
 O    1.448052366979   -1.536799004509   -0.044622790596
 C    1.289500875616    0.855207086027    0.012091517091
 C    2.781790769222    1.039065411489    0.007260707265
 H    3.043338398302    2.107493288357    0.029914875412
 H    3.221935082812    0.580745192067   -0.891847544181
 H    3.232795975931    0.540578926183    0.879197544178
 H   -1.613895653355    2.474925312544    0.064015144683
LI   -1.058684011312   -6.655093613160   -0.141230392811
