16

 N   -0.969270543103    1.695407014943    0.044209094428
 C    0.401344869306    1.894881692784    0.040577460052
 H    0.723129165644    2.938626623660    0.061996275745
 C   -1.568985812532    0.442291855390    0.019679103772
 O   -2.786759844064    0.275349149323    0.020675184546
 N   -0.643679796921   -0.594485754452   -0.007977433217
 H   -1.038253504784   -1.533000064301   -0.028486306615
 C    0.762050581474   -0.508447042134   -0.016425484008
 O    1.450371253902   -1.532064263936   -0.044533422561
 C    1.291819762539    0.859941826600    0.012180885126
 C    2.784109656145    1.043800152062    0.007350075300
 H    3.045657285225    2.112228028930    0.030004243447
 H    3.224253969735    0.585479932640   -0.891758176146
 H    3.235114862854    0.545313666756    0.879286912213
 H   -1.611576766432    2.479660053117    0.064104512718
LI   -1.100342955587   -6.740153514844   -0.142835894990
