16

 N   -0.953038334641    1.728550198956    0.044834670676
 C    0.417577077768    1.928024876797    0.041203036300
 H    0.739361374106    2.971769807673    0.062621851993
 C   -1.552753604070    0.475435039403    0.020304680020
 O   -2.770527635602    0.308492333336    0.021300760794
 N   -0.627447588459   -0.561342570439   -0.007351856969
 H   -1.022021296322   -1.499856880288   -0.027860730367
 C    0.778282789936   -0.475303858121   -0.015799907760
 O    1.466603462364   -1.498921079923   -0.043907846313
 C    1.308051971001    0.893085010613    0.012806461374
 C    2.800341864607    1.076943336075    0.007975651548
 H    3.061889493687    2.145371212943    0.030629819695
 H    3.240486178197    0.618623116653   -0.891132599898
 H    3.251347071316    0.578456850769    0.879912488461
 H   -1.595344557970    2.512803237130    0.064730088966
LI   -1.391955565511   -7.335572826630   -0.154074410242
