16

 N   -0.939125013102    1.756958642396    0.045370878889
 C    0.431490399307    1.956433320237    0.041739244513
 H    0.753274695645    3.000178251113    0.063158060206
 C   -1.538840282531    0.503843482843    0.020840888233
 O   -2.756614314063    0.336900776776    0.021836969007
 N   -0.613534266920   -0.532934126999   -0.006815648756
 H   -1.008107974783   -1.471448436848   -0.027324522154
 C    0.792196111475   -0.446895414681   -0.015263699547
 O    1.480516783903   -1.470512636483   -0.043371638100
 C    1.321965292540    0.921493454053    0.013342669587
 C    2.814255186146    1.105351779515    0.008511859761
 H    3.075802815226    2.173779656383    0.031166027908
 H    3.254399499736    0.647031560093   -0.890596391685
 H    3.265260392855    0.606865294209    0.880448696674
 H   -1.581431236431    2.541211680570    0.065266297179
LI   -1.641909231161   -7.845932236733   -0.163707423315
