16

 N   -0.934487239256    1.766428123542    0.045549614960
 C    0.436128173153    1.965902801383    0.041917980584
 H    0.757912469491    3.009647732259    0.063336796277
 C   -1.534202508685    0.513312963989    0.021019624304
 O   -2.751976540217    0.346370257922    0.022015705078
 N   -0.608896493074   -0.523464645853   -0.006636912685
 H   -1.003470200937   -1.461978955702   -0.027145786083
 C    0.796833885321   -0.437425933535   -0.015084963476
 O    1.485154557749   -1.461043155337   -0.043192902029
 C    1.326603066386    0.930962935199    0.013521405658
 C    2.818892959992    1.114821260661    0.008690595832
 H    3.080440589072    2.183249137529    0.031344763979
 H    3.259037273582    0.656501041239   -0.890417655614
 H    3.269898166701    0.616334775355    0.880627432745
 H   -1.576793462585    2.550681161716    0.065445033250
LI   -1.725227119711   -8.016052040101   -0.166918427673
