16

 N   -0.932168352333    1.771162864116    0.045638982995
 C    0.438447060076    1.970637541957    0.042007348619
 H    0.760231356414    3.014382472833    0.063426164312
 C   -1.531883621762    0.518047704563    0.021108992339
 O   -2.749657653294    0.351104998496    0.022105073113
 N   -0.606577606151   -0.518729905279   -0.006547544650
 H   -1.001151314014   -1.457244215128   -0.027056418048
 C    0.799152772244   -0.432691192961   -0.014995595441
 O    1.487473444672   -1.456308414763   -0.043103533994
 C    1.328921953309    0.935697675773    0.013610773693
 C    2.821211846915    1.119556001235    0.008779963867
 H    3.082759475995    2.187983878103    0.031434132014
 H    3.261356160505    0.661235781813   -0.890328287579
 H    3.272217053624    0.621069515929    0.880716800780
 H   -1.574474575662    2.555415902290    0.065534401285
LI   -1.766886063986   -8.101111941784   -0.168523929852
