16

 N   -0.927530578487    1.780632345262    0.045817719066
 C    0.443084833922    1.980107023103    0.042186084690
 H    0.764869130260    3.023851953979    0.063604900383
 C   -1.527245847916    0.527517185709    0.021287728410
 O   -2.745019879448    0.360574479642    0.022283809184
 N   -0.601939832305   -0.509260424133   -0.006368808579
 H   -0.996513540168   -1.447774733982   -0.026877681977
 C    0.803790546090   -0.423221711815   -0.014816859370
 O    1.492111218518   -1.446838933617   -0.042924797923
 C    1.333559727155    0.945167156919    0.013789509764
 C    2.825849620761    1.129025482381    0.008958699938
 H    3.087397249841    2.197453359249    0.031612868085
 H    3.265993934351    0.670705262959   -0.890149551508
 H    3.276854827470    0.630538997075    0.880895536851
 H   -1.569836801816    2.564885383436    0.065713137356
LI   -1.850203952536   -8.271231745152   -0.171734934209
