16

 N   -0.915936143871    1.804306048129    0.046264559243
 C    0.454679268538    2.003780725970    0.042632924867
 H    0.776463564876    3.047525656846    0.064051740560
 C   -1.515651413300    0.551190888576    0.021734568587
 O   -2.733425444832    0.384248182509    0.022730649361
 N   -0.590345397689   -0.485586721266   -0.005921968402
 H   -0.984919105552   -1.424101031115   -0.026430841800
 C    0.815384980706   -0.399548008948   -0.014370019193
 O    1.503705653134   -1.423165230750   -0.042477957746
 C    1.345154161771    0.968840859786    0.014236349941
 C    2.837444055377    1.152699185248    0.009405540115
 H    3.098991684457    2.221127062116    0.032059708262
 H    3.277588368967    0.694378965826   -0.889702711331
 H    3.288449262086    0.654212699942    0.881342377028
 H   -1.558242367200    2.588559086303    0.066159977533
LI   -2.058498673910   -8.696531253571   -0.179762445104
