16

 N   -0.904341709255    1.827979750995    0.046711399420
 C    0.466273703154    2.027454428836    0.043079765044
 H    0.788057999492    3.071199359712    0.064498580737
 C   -1.504056978684    0.574864591442    0.022181408764
 O   -2.721831010216    0.407921885375    0.023177489538
 N   -0.578750963073   -0.461913018400   -0.005475128225
 H   -0.973324670936   -1.400427328249   -0.025984001623
 C    0.826979415322   -0.375874306082   -0.013923179016
 O    1.515300087750   -1.399491527884   -0.042031117569
 C    1.356748596387    0.992514562652    0.014683190118
 C    2.849038489993    1.176372888114    0.009852380292
 H    3.110586119073    2.244800764982    0.032506548439
 H    3.289182803583    0.718052668692   -0.889255871154
 H    3.300043696702    0.677886402808    0.881789217205
 H   -1.546647932584    2.612232789169    0.066606817710
LI   -2.266793395285   -9.121830761990   -0.187789955998
