16

 N   -0.895066161563    1.846918713288    0.047068871562
 C    0.475549250846    2.046393391129    0.043437237186
 H    0.797333547184    3.090138322005    0.064856052879
 C   -1.494781430992    0.593803553735    0.022538880906
 O   -2.712555462524    0.426860847668    0.023534961680
 N   -0.569475415381   -0.442974056107   -0.005117656083
 H   -0.964049123244   -1.381488365956   -0.025626529481
 C    0.836254963014   -0.356935343789   -0.013565706874
 O    1.524575635442   -1.380552565591   -0.041673645427
 C    1.366024144079    1.011453524945    0.015040662260
 C    2.858314037685    1.195311850407    0.010209852434
 H    3.119861666765    2.263739727275    0.032864020581
 H    3.298458351275    0.736991630985   -0.888898399012
 H    3.309319244394    0.696825365101    0.882146689347
 H   -1.537372384892    2.631171751462    0.066964289852
LI   -2.433429172385   -9.462070368725   -0.194211964714
