16

 N   -0.888109500793    1.861122935008    0.047336975668
 C    0.482505911616    2.060597612849    0.043705341292
 H    0.804290207954    3.104342543725    0.065124156985
 C   -1.487824770222    0.608007775455    0.022806985012
 O   -2.705598801754    0.441065069388    0.023803065786
 N   -0.562518754611   -0.428769834387   -0.004849551977
 H   -0.957092462474   -1.367284144236   -0.025358425375
 C    0.843211623784   -0.342731122069   -0.013297602768
 O    1.531532296212   -1.366348343871   -0.041405541321
 C    1.372980804849    1.025657746665    0.015308766366
 C    2.865270698455    1.209516072127    0.010477956540
 H    3.126818327535    2.277943948995    0.033132124687
 H    3.305415012045    0.751195852705   -0.888630294906
 H    3.316275905164    0.711029586821    0.882414793453
 H   -1.530415724122    2.645375973182    0.067232393958
LI   -2.558406005210   -9.717250073776   -0.199028471250
