16

 N   -0.885790613870    1.865857675581    0.047426343704
 C    0.484824798539    2.065332353422    0.043794709328
 H    0.806609094877    3.109077284298    0.065213525021
 C   -1.485505883299    0.612742516028    0.022896353048
 O   -2.703279914831    0.445799809961    0.023892433822
 N   -0.560199867688   -0.424035093814   -0.004760183941
 H   -0.954773575551   -1.362549403663   -0.025269057339
 C    0.845530510707   -0.337996381496   -0.013208234732
 O    1.533851183135   -1.361613603298   -0.041316173285
 C    1.375299691772    1.030392487238    0.015398134402
 C    2.867589585378    1.214250812700    0.010567324576
 H    3.129137214458    2.282678689568    0.033221492723
 H    3.307733898968    0.755930593278   -0.888540926870
 H    3.318594792087    0.715764327394    0.882504161489
 H   -1.528096837199    2.650110713755    0.067321761994
LI   -2.600064949485   -9.802309975460   -0.200633973429
