16

 N   -0.874196179254    1.889531378447    0.047873183881
 C    0.496419233155    2.089006056288    0.044241549505
 H    0.818203529493    3.132750987164    0.065660365198
 C   -1.473911448683    0.636416218894    0.023343193225
 O   -2.691685480215    0.469473512827    0.024339273999
 N   -0.548605433072   -0.400361390948   -0.004313343764
 H   -0.943179140935   -1.338875700797   -0.024822217162
 C    0.857124945323   -0.314322678630   -0.012761394555
 O    1.545445617751   -1.337939900432   -0.040869333108
 C    1.386894126388    1.054066190104    0.015844974579
 C    2.879184019994    1.237924515566    0.011014164753
 H    3.140731649074    2.306352392434    0.033668332900
 H    3.319328333584    0.779604296144   -0.888094086693
 H    3.330189226703    0.739438030260    0.882951001666
 H   -1.516502402583    2.673784416621    0.067768602171
LI   -2.808359670859  -10.227609483879   -0.208661484324
