12

 C   -2.287591352888    1.006225790746    0.000000000000
 C   -1.175249352888   -0.013252209254    0.000000000000
 O   -1.679580352888   -1.279705209254    0.000000000000
 C   -0.665114352888   -2.313444209254    0.000000000000
 O    0.022390647112    0.231240790746    0.000000000000
 H   -1.855021352888    2.013235790746    0.000000000000
 H   -2.919928352888    0.863653790746    0.888615000000
 H   -2.919928352888    0.863653790746   -0.888615000000
 H   -1.219211352888   -3.258568209254    0.000000000000
 H   -0.035319352888   -2.227145209254    0.896190000000
 H   -0.035319352888   -2.227145209254   -0.896190000000
RB    1.002182414520    0.431261021023    0.000000000000
