12

 C   -2.392274110305    0.984855260863    0.000000000000
 C   -1.279932110305   -0.034622739137    0.000000000000
 O   -1.784263110305   -1.301075739137    0.000000000000
 C   -0.769797110305   -2.334814739137    0.000000000000
 O   -0.082292110305    0.209870260863    0.000000000000
 H   -1.959704110305    1.991865260863    0.000000000000
 H   -3.024611110305    0.842283260863    0.888615000000
 H   -3.024611110305    0.842283260863   -0.888615000000
 H   -1.323894110305   -3.279938739137    0.000000000000
 H   -0.140002110305   -2.248515739137    0.896190000000
 H   -0.140002110305   -2.248515739137   -0.896190000000
RB    1.093458010584    0.449894537195    0.000000000000
