12

 C   -2.549298246430    0.952799466039    0.000000000000
 C   -1.436956246430   -0.066678533961    0.000000000000
 O   -1.941287246430   -1.333131533961    0.000000000000
 C   -0.926821246430   -2.366870533961    0.000000000000
 O   -0.239316246430    0.177814466039    0.000000000000
 H   -2.116728246430    1.959809466039    0.000000000000
 H   -3.181635246430    0.810227466039    0.888615000000
 H   -3.181635246430    0.810227466039   -0.888615000000
 H   -1.480918246430   -3.311994533961    0.000000000000
 H   -0.297026246430   -2.280571533961    0.896190000000
 H   -0.297026246430   -2.280571533961   -0.896190000000
RB    1.230371404682    0.477844811454    0.000000000000
