12

 C   -2.758663761264    0.910058406273    0.000000000000
 C   -1.646321761264   -0.109419593727    0.000000000000
 O   -2.150652761264   -1.375872593727    0.000000000000
 C   -1.136186761264   -2.409611593727    0.000000000000
 O   -0.448681761264    0.135073406273    0.000000000000
 H   -2.326093761264    1.917068406273    0.000000000000
 H   -3.391000761264    0.767486406273    0.888615000000
 H   -3.391000761264    0.767486406273   -0.888615000000
 H   -1.690283761264   -3.354735593727    0.000000000000
 H   -0.506391761264   -2.323312593727    0.896190000000
 H   -0.506391761264   -2.323312593727   -0.896190000000
RB    1.412922596811    0.515111843799    0.000000000000
