12

 C   -2.811005139972    0.899373141331    0.000000000000
 C   -1.698663139972   -0.120104858669    0.000000000000
 O   -2.202994139972   -1.386557858669    0.000000000000
 C   -1.188528139972   -2.420296858669    0.000000000000
 O   -0.501023139972    0.124388141331    0.000000000000
 H   -2.378435139972    1.906383141331    0.000000000000
 H   -3.443342139972    0.756801141331    0.888615000000
 H   -3.443342139972    0.756801141331   -0.888615000000
 H   -1.742625139972   -3.365420858669    0.000000000000
 H   -0.558733139972   -2.333997858669    0.896190000000
 H   -0.558733139972   -2.333997858669   -0.896190000000
RB    1.458560394844    0.524428601885    0.000000000000
