12

 C   -2.863346518680    0.888687876389    0.000000000000
 C   -1.751004518680   -0.130790123611    0.000000000000
 O   -2.255335518680   -1.397243123611    0.000000000000
 C   -1.240869518680   -2.430982123611    0.000000000000
 O   -0.553364518680    0.113702876389    0.000000000000
 H   -2.430776518680    1.895697876389    0.000000000000
 H   -3.495683518680    0.746115876389    0.888615000000
 H   -3.495683518680    0.746115876389   -0.888615000000
 H   -1.794966518680   -3.376106123611    0.000000000000
 H   -0.611074518680   -2.344683123611    0.896190000000
 H   -0.611074518680   -2.344683123611   -0.896190000000
RB    1.504198192876    0.533745359971    0.000000000000
