12

 C   -2.968029276097    0.867317346506    0.000000000000
 C   -1.855687276097   -0.152160653494    0.000000000000
 O   -2.360018276097   -1.418613653494    0.000000000000
 C   -1.345552276097   -2.452352653494    0.000000000000
 O   -0.658047276097    0.092332346506    0.000000000000
 H   -2.535459276097    1.874327346506    0.000000000000
 H   -3.600366276097    0.724745346506    0.888615000000
 H   -3.600366276097    0.724745346506   -0.888615000000
 H   -1.899649276097   -3.397476653494    0.000000000000
 H   -0.715757276097   -2.366053653494    0.896190000000
 H   -0.715757276097   -2.366053653494   -0.896190000000
RB    1.595473788941    0.552378876143    0.000000000000
