12

 C   -3.072712033514    0.845946816623    0.000000000000
 C   -1.960370033514   -0.173531183377    0.000000000000
 O   -2.464701033514   -1.439984183377    0.000000000000
 C   -1.450235033514   -2.473723183377    0.000000000000
 O   -0.762730033514    0.070961816623    0.000000000000
 H   -2.640142033514    1.852956816623    0.000000000000
 H   -3.705049033514    0.703374816623    0.888615000000
 H   -3.705049033514    0.703374816623   -0.888615000000
 H   -2.004332033514   -3.418847183377    0.000000000000
 H   -0.820440033514   -2.387424183377    0.896190000000
 H   -0.820440033514   -2.387424183377   -0.896190000000
RB    1.686749385005    0.571012392316    0.000000000000
