12

 C   -3.177394790931    0.824576286740    0.000000000000
 C   -2.065052790931   -0.194901713260    0.000000000000
 O   -2.569383790931   -1.461354713260    0.000000000000
 C   -1.554917790931   -2.495093713260    0.000000000000
 O   -0.867412790931    0.049591286740    0.000000000000
 H   -2.744824790931    1.831586286740    0.000000000000
 H   -3.809731790931    0.682004286740    0.888615000000
 H   -3.809731790931    0.682004286740   -0.888615000000
 H   -2.109014790931   -3.440217713260    0.000000000000
 H   -0.925122790931   -2.408794713260    0.896190000000
 H   -0.925122790931   -2.408794713260   -0.896190000000
RB    1.778024981070    0.589645908488    0.000000000000
