12

 C   -3.334418927056    0.792520491916    0.000000000000
 C   -2.222076927056   -0.226957508084    0.000000000000
 O   -2.726407927056   -1.493410508084    0.000000000000
 C   -1.711941927056   -2.527149508084    0.000000000000
 O   -1.024436927056    0.017535491916    0.000000000000
 H   -2.901848927056    1.799530491916    0.000000000000
 H   -3.966755927056    0.649948491916    0.888615000000
 H   -3.966755927056    0.649948491916   -0.888615000000
 H   -2.266038927056   -3.472273508084    0.000000000000
 H   -1.082146927056   -2.440850508084    0.896190000000
 H   -1.082146927056   -2.440850508084   -0.896190000000
RB    1.914938375167    0.617596182747    0.000000000000
