12

 C   -3.648467199306    0.728408902267    0.000000000000
 C   -2.536125199306   -0.291069097733    0.000000000000
 O   -3.040456199306   -1.557522097733    0.000000000000
 C   -2.025990199306   -2.591261097733    0.000000000000
 O   -1.338485199306   -0.046576097733    0.000000000000
 H   -3.215897199306    1.735418902267    0.000000000000
 H   -4.280804199306    0.585836902267    0.888615000000
 H   -4.280804199306    0.585836902267   -0.888615000000
 H   -2.580087199306   -3.536385097733    0.000000000000
 H   -1.396195199306   -2.504962097733    0.896190000000
 H   -1.396195199306   -2.504962097733   -0.896190000000
RB    2.188765163362    0.673496731264    0.000000000000
