12

 C   -3.700808578015    0.717723637325    0.000000000000
 C   -2.588466578015   -0.301754362675    0.000000000000
 O   -3.092797578015   -1.568207362675    0.000000000000
 C   -2.078331578015   -2.601946362675    0.000000000000
 O   -1.390826578015   -0.057261362675    0.000000000000
 H   -3.268238578015    1.724733637325    0.000000000000
 H   -4.333145578015    0.575151637325    0.888615000000
 H   -4.333145578015    0.575151637325   -0.888615000000
 H   -2.632428578015   -3.547070362675    0.000000000000
 H   -1.448536578015   -2.515647362675    0.896190000000
 H   -1.448536578015   -2.515647362675   -0.896190000000
RB    2.234402961394    0.682813489350    0.000000000000
