12

 C   -3.857832714140    0.685667842501    0.000000000000
 C   -2.745490714140   -0.333810157499    0.000000000000
 O   -3.249821714140   -1.600263157499    0.000000000000
 C   -2.235355714140   -2.634002157499    0.000000000000
 O   -1.547850714140   -0.089317157499    0.000000000000
 H   -3.425262714140    1.692677842501    0.000000000000
 H   -4.490169714140    0.543095842501    0.888615000000
 H   -4.490169714140    0.543095842501   -0.888615000000
 H   -2.789452714140   -3.579126157499    0.000000000000
 H   -1.605560714140   -2.547703157499    0.896190000000
 H   -1.605560714140   -2.547703157499   -0.896190000000
RB    2.371316355491    0.710763763608    0.000000000000
