12

 C   -4.014856850265    0.653612047676    0.000000000000
 C   -2.902514850265   -0.365865952324    0.000000000000
 O   -3.406845850265   -1.632318952324    0.000000000000
 C   -2.392379850265   -2.666057952324    0.000000000000
 O   -1.704874850265   -0.121372952324    0.000000000000
 H   -3.582286850265    1.660622047676    0.000000000000
 H   -4.647193850265    0.511040047676    0.888615000000
 H   -4.647193850265    0.511040047676   -0.888615000000
 H   -2.946476850265   -3.611181952324    0.000000000000
 H   -1.762584850265   -2.579758952324    0.896190000000
 H   -1.762584850265   -2.579758952324   -0.896190000000
RB    2.508229749588    0.738714037867    0.000000000000
