12

 C   -4.067198228973    0.642926782735    0.000000000000
 C   -2.954856228973   -0.376551217265    0.000000000000
 O   -3.459187228973   -1.643004217265    0.000000000000
 C   -2.444721228973   -2.676743217265    0.000000000000
 O   -1.757216228973   -0.132058217265    0.000000000000
 H   -3.634628228973    1.649936782735    0.000000000000
 H   -4.699535228973    0.500354782735    0.888615000000
 H   -4.699535228973    0.500354782735   -0.888615000000
 H   -2.998818228973   -3.621867217265    0.000000000000
 H   -1.814926228973   -2.590444217265    0.896190000000
 H   -1.814926228973   -2.590444217265   -0.896190000000
RB    2.553867547621    0.748030795953    0.000000000000
