12

 C   -4.119539607682    0.632241517793    0.000000000000
 C   -3.007197607682   -0.387236482207    0.000000000000
 O   -3.511528607682   -1.653689482207    0.000000000000
 C   -2.497062607682   -2.687428482207    0.000000000000
 O   -1.809557607682   -0.142743482207    0.000000000000
 H   -3.686969607682    1.639251517793    0.000000000000
 H   -4.751876607682    0.489669517793    0.888615000000
 H   -4.751876607682    0.489669517793   -0.888615000000
 H   -3.051159607682   -3.632552482207    0.000000000000
 H   -1.867267607682   -2.601129482207    0.896190000000
 H   -1.867267607682   -2.601129482207   -0.896190000000
RB    2.599505345653    0.757347554039    0.000000000000
