12

 C   -4.171880986390    0.621556252852    0.000000000000
 C   -3.059538986390   -0.397921747148    0.000000000000
 O   -3.563869986390   -1.664374747148    0.000000000000
 C   -2.549403986390   -2.698113747148    0.000000000000
 O   -1.861898986390   -0.153428747148    0.000000000000
 H   -3.739310986390    1.628566252852    0.000000000000
 H   -4.804217986390    0.478984252852    0.888615000000
 H   -4.804217986390    0.478984252852   -0.888615000000
 H   -3.103500986390   -3.643237747148    0.000000000000
 H   -1.919608986390   -2.611814747148    0.896190000000
 H   -1.919608986390   -2.611814747148   -0.896190000000
RB    2.645143143686    0.766664312125    0.000000000000
