12

 C   -4.695294773474    0.514703603437    0.000000000000
 C   -3.582952773474   -0.504774396563    0.000000000000
 O   -4.087283773474   -1.771227396563    0.000000000000
 C   -3.072817773474   -2.804966396563    0.000000000000
 O   -2.385312773474   -0.260281396563    0.000000000000
 H   -4.262724773474    1.521713603437    0.000000000000
 H   -5.327631773474    0.372131603437    0.888615000000
 H   -5.327631773474    0.372131603437   -0.888615000000
 H   -3.626914773474   -3.750090396563    0.000000000000
 H   -2.443022773474   -2.718667396563    0.896190000000
 H   -2.443022773474   -2.718667396563   -0.896190000000
RB    3.101521124009    0.859831892987    0.000000000000
