12

 C   -4.747636152182    0.504018338495    0.000000000000
 C   -3.635294152182   -0.515459661505    0.000000000000
 O   -4.139625152182   -1.781912661505    0.000000000000
 C   -3.125159152182   -2.815651661505    0.000000000000
 O   -2.437654152182   -0.270966661505    0.000000000000
 H   -4.315066152182    1.511028338495    0.000000000000
 H   -5.379973152182    0.361446338495    0.888615000000
 H   -5.379973152182    0.361446338495   -0.888615000000
 H   -3.679256152182   -3.760775661505    0.000000000000
 H   -2.495364152182   -2.729352661505    0.896190000000
 H   -2.495364152182   -2.729352661505   -0.896190000000
RB    3.147158922042    0.869148651073    0.000000000000
