12

 C   -5.009343045724    0.450592013788    0.000000000000
 C   -3.897001045724   -0.568885986212    0.000000000000
 O   -4.401332045724   -1.835338986212    0.000000000000
 C   -3.386866045724   -2.869077986212    0.000000000000
 O   -2.699361045724   -0.324392986212    0.000000000000
 H   -4.576773045724    1.457602013788    0.000000000000
 H   -5.641680045724    0.308020013788    0.888615000000
 H   -5.641680045724    0.308020013788   -0.888615000000
 H   -3.940963045724   -3.814201986212    0.000000000000
 H   -2.757071045724   -2.782778986212    0.896190000000
 H   -2.757071045724   -2.782778986212   -0.896190000000
RB    3.375347912204    0.915732441504    0.000000000000
