12

 C   -5.323391317974    0.386480424139    0.000000000000
 C   -4.211049317974   -0.632997575861    0.000000000000
 O   -4.715380317974   -1.899450575861    0.000000000000
 C   -3.700914317974   -2.933189575861    0.000000000000
 O   -3.013409317974   -0.388504575861    0.000000000000
 H   -4.890821317974    1.393490424139    0.000000000000
 H   -5.955728317974    0.243908424139    0.888615000000
 H   -5.955728317974    0.243908424139   -0.888615000000
 H   -4.255011317974   -3.878313575861    0.000000000000
 H   -3.071119317974   -2.846890575861    0.896190000000
 H   -3.071119317974   -2.846890575861   -0.896190000000
RB    3.649174700398    0.971632990021    0.000000000000
