12

 C   -5.375732696683    0.375795159197    0.000000000000
 C   -4.263390696683   -0.643682840803    0.000000000000
 O   -4.767721696683   -1.910135840803    0.000000000000
 C   -3.753255696683   -2.943874840803    0.000000000000
 O   -3.065750696683   -0.399189840803    0.000000000000
 H   -4.943162696683    1.382805159197    0.000000000000
 H   -6.008069696683    0.233223159197    0.888615000000
 H   -6.008069696683    0.233223159197   -0.888615000000
 H   -4.307352696683   -3.888998840803    0.000000000000
 H   -3.123460696683   -2.857575840803    0.896190000000
 H   -3.123460696683   -2.857575840803   -0.896190000000
RB    3.694812498431    0.980949748108    0.000000000000
