12

 C   -5.742122347642    0.300998304606    0.000000000000
 C   -4.629780347642   -0.718479695394    0.000000000000
 O   -5.134111347642   -1.984932695394    0.000000000000
 C   -4.119645347642   -3.018671695394    0.000000000000
 O   -3.432140347642   -0.473986695394    0.000000000000
 H   -5.309552347642    1.308008304606    0.000000000000
 H   -6.374459347642    0.158426304606    0.888615000000
 H   -6.374459347642    0.158426304606   -0.888615000000
 H   -4.673742347642   -3.963795695394    0.000000000000
 H   -3.489850347642   -2.932372695394    0.896190000000
 H   -3.489850347642   -2.932372695394   -0.896190000000
RB    4.014277084657    1.046167054711    0.000000000000
