12

 C   -5.846805105058    0.279627774723    0.000000000000
 C   -4.734463105058   -0.739850225277    0.000000000000
 O   -5.238794105058   -2.006303225277    0.000000000000
 C   -4.224328105058   -3.040042225277    0.000000000000
 O   -3.536823105058   -0.495357225277    0.000000000000
 H   -5.414235105058    1.286637774723    0.000000000000
 H   -6.479142105058    0.137055774723    0.888615000000
 H   -6.479142105058    0.137055774723   -0.888615000000
 H   -4.778425105058   -3.985166225277    0.000000000000
 H   -3.594533105058   -2.953743225277    0.896190000000
 H   -3.594533105058   -2.953743225277   -0.896190000000
RB    4.105552680722    1.064800570883    0.000000000000
