12

 C   -5.899146483767    0.268942509782    0.000000000000
 C   -4.786804483767   -0.750535490218    0.000000000000
 O   -5.291135483767   -2.016988490218    0.000000000000
 C   -4.276669483767   -3.050727490218    0.000000000000
 O   -3.589164483767   -0.506042490218    0.000000000000
 H   -5.466576483767    1.275952509782    0.000000000000
 H   -6.531483483767    0.126370509782    0.888615000000
 H   -6.531483483767    0.126370509782   -0.888615000000
 H   -4.830766483767   -3.995851490218    0.000000000000
 H   -3.646874483767   -2.964428490218    0.896190000000
 H   -3.646874483767   -2.964428490218   -0.896190000000
RB    4.151190478754    1.074117328969    0.000000000000
