12

 C   -6.003829241184    0.247571979899    0.000000000000
 C   -4.891487241184   -0.771906020101    0.000000000000
 O   -5.395818241184   -2.038359020101    0.000000000000
 C   -4.381352241184   -3.072098020101    0.000000000000
 O   -3.693847241184   -0.527413020101    0.000000000000
 H   -5.571259241184    1.254581979899    0.000000000000
 H   -6.636166241184    0.104999979899    0.888615000000
 H   -6.636166241184    0.104999979899   -0.888615000000
 H   -4.935449241184   -4.017222020101    0.000000000000
 H   -3.751557241184   -2.985799020101    0.896190000000
 H   -3.751557241184   -2.985799020101   -0.896190000000
RB    4.242466074819    1.092750845142    0.000000000000
