12

 C   -6.056170619892    0.236886714957    0.000000000000
 C   -4.943828619892   -0.782591285043    0.000000000000
 O   -5.448159619892   -2.049044285043    0.000000000000
 C   -4.433693619892   -3.082783285043    0.000000000000
 O   -3.746188619892   -0.538098285043    0.000000000000
 H   -5.623600619892    1.243896714957    0.000000000000
 H   -6.688507619892    0.094314714957    0.888615000000
 H   -6.688507619892    0.094314714957   -0.888615000000
 H   -4.987790619892   -4.027907285043    0.000000000000
 H   -3.803898619892   -2.996484285043    0.896190000000
 H   -3.803898619892   -2.996484285043   -0.896190000000
RB    4.288103872852    1.102067603228    0.000000000000
