12

 C   -6.108511998600    0.226201450016    0.000000000000
 C   -4.996169998600   -0.793276549984    0.000000000000
 O   -5.500500998600   -2.059729549984    0.000000000000
 C   -4.486034998600   -3.093468549984    0.000000000000
 O   -3.798529998600   -0.548783549984    0.000000000000
 H   -5.675941998600    1.233211450016    0.000000000000
 H   -6.740848998600    0.083629450016    0.888615000000
 H   -6.740848998600    0.083629450016   -0.888615000000
 H   -5.040131998600   -4.038592549984    0.000000000000
 H   -3.856239998600   -3.007169549984    0.896190000000
 H   -3.856239998600   -3.007169549984   -0.896190000000
RB    4.333741670884    1.111384361314    0.000000000000
