12

 C   -6.160853377309    0.215516185074    0.000000000000
 C   -5.048511377309   -0.803961814926    0.000000000000
 O   -5.552842377309   -2.070414814926    0.000000000000
 C   -4.538376377309   -3.104153814926    0.000000000000
 O   -3.850871377309   -0.559468814926    0.000000000000
 H   -5.728283377309    1.222526185074    0.000000000000
 H   -6.793190377309    0.072944185074    0.888615000000
 H   -6.793190377309    0.072944185074   -0.888615000000
 H   -5.092473377309   -4.049277814926    0.000000000000
 H   -3.908581377309   -3.017854814926    0.896190000000
 H   -3.908581377309   -3.017854814926   -0.896190000000
RB    4.379379468916    1.120701119400    0.000000000000
