12

 C   -6.317877513434    0.183460390250    0.000000000000
 C   -5.205535513434   -0.836017609750    0.000000000000
 O   -5.709866513434   -2.102470609750    0.000000000000
 C   -4.695400513434   -3.136209609750    0.000000000000
 O   -4.007895513434   -0.591524609750    0.000000000000
 H   -5.885307513434    1.190470390250    0.000000000000
 H   -6.950214513434    0.040888390250    0.888615000000
 H   -6.950214513434    0.040888390250   -0.888615000000
 H   -5.249497513434   -4.081333609750    0.000000000000
 H   -4.065605513434   -3.049910609750    0.896190000000
 H   -4.065605513434   -3.049910609750   -0.896190000000
RB    4.516292863013    1.148651393659    0.000000000000
