12

 C   -6.422560270851    0.162089860367    0.000000000000
 C   -5.310218270851   -0.857388139633    0.000000000000
 O   -5.814549270851   -2.123841139633    0.000000000000
 C   -4.800083270851   -3.157580139633    0.000000000000
 O   -4.112578270851   -0.612895139633    0.000000000000
 H   -5.989990270851    1.169099860367    0.000000000000
 H   -7.054897270851    0.019517860367    0.888615000000
 H   -7.054897270851    0.019517860367   -0.888615000000
 H   -5.354180270851   -4.102704139633    0.000000000000
 H   -4.170288270851   -3.071281139633    0.896190000000
 H   -4.170288270851   -3.071281139633   -0.896190000000
RB    4.607568459078    1.167284909831    0.000000000000
