12

 C   -6.684267164393    0.108663535659    0.000000000000
 C   -5.571925164393   -0.910814464341    0.000000000000
 O   -6.076256164393   -2.177267464341    0.000000000000
 C   -5.061790164393   -3.211006464341    0.000000000000
 O   -4.374285164393   -0.666321464341    0.000000000000
 H   -6.251697164393    1.115673535659    0.000000000000
 H   -7.316604164393   -0.033908464341    0.888615000000
 H   -7.316604164393   -0.033908464341   -0.888615000000
 H   -5.615887164393   -4.156130464341    0.000000000000
 H   -4.431995164393   -3.124707464341    0.896190000000
 H   -4.431995164393   -3.124707464341   -0.896190000000
RB    4.835757449240    1.213868700262    0.000000000000
