12

 C   -6.893632679226    0.065922475893    0.000000000000
 C   -5.781290679226   -0.953555524107    0.000000000000
 O   -6.285621679226   -2.220008524107    0.000000000000
 C   -5.271155679226   -3.253747524107    0.000000000000
 O   -4.583650679226   -0.709062524107    0.000000000000
 H   -6.461062679226    1.072932475893    0.000000000000
 H   -7.525969679226   -0.076649524107    0.888615000000
 H   -7.525969679226   -0.076649524107   -0.888615000000
 H   -5.825252679226   -4.198871524107    0.000000000000
 H   -4.641360679226   -3.167448524107    0.896190000000
 H   -4.641360679226   -3.167448524107   -0.896190000000
RB    5.018308641370    1.251135732607    0.000000000000
