9

 C   -1.481217800076   -0.507384160605    0.000000000000
 H   -2.460144800076   -0.015596160605    0.000000000000
 H   -1.374071800076   -1.147193160605    0.888272000000
 H   -1.374071800076   -1.147193160605   -0.888272000000
 C   -0.396590800076    0.538199839395    0.000000000000
 O   -0.557694800076    1.747750839395    0.000000000000
 O    0.845695199924   -0.038808160605    0.000000000000
 H    1.480231199924    0.699754839395    0.000000000000
NA    0.943219155353   -1.134476485472    0.000000000000
