9

 C   -1.483673176716   -0.479798339282    0.000000000000
 H   -2.462600176716    0.011989660718    0.000000000000
 H   -1.376527176716   -1.119607339282    0.888272000000
 H   -1.376527176716   -1.119607339282   -0.888272000000
 C   -0.399046176716    0.565785660718    0.000000000000
 O   -0.560150176716    1.775336660718    0.000000000000
 O    0.843239823284   -0.011222339282    0.000000000000
 H    1.477775823284    0.727340660718    0.000000000000
NA    0.949629592844   -1.206496875501    0.000000000000
