9

 C   -1.488583929994   -0.424626696636    0.000000000000
 H   -2.467510929994    0.067161303364    0.000000000000
 H   -1.381437929994   -1.064435696636    0.888272000000
 H   -1.381437929994   -1.064435696636   -0.888272000000
 C   -0.403956929994    0.620957303364    0.000000000000
 O   -0.565060929994    1.830508303364    0.000000000000
 O    0.838329070006    0.043949303364    0.000000000000
 H    1.472865070006    0.782512303364    0.000000000000
NA    0.962450467825   -1.350537655558    0.000000000000
