9

 C   -1.491039306633   -0.397040875313    0.000000000000
 H   -2.469966306633    0.094747124687    0.000000000000
 H   -1.383893306633   -1.036849875313    0.888272000000
 H   -1.383893306633   -1.036849875313   -0.888272000000
 C   -0.406412306633    0.648543124687    0.000000000000
 O   -0.567516306633    1.858094124687    0.000000000000
 O    0.835873693367    0.071535124687    0.000000000000
 H    1.470409693367    0.810098124687    0.000000000000
NA    0.968860905316   -1.422558045586    0.000000000000
