9

 C   -1.493494683273   -0.369455053990    0.000000000000
 H   -2.472421683273    0.122332946010    0.000000000000
 H   -1.386348683273   -1.009264053990    0.888272000000
 H   -1.386348683273   -1.009264053990   -0.888272000000
 C   -0.408867683273    0.676128946010    0.000000000000
 O   -0.569971683273    1.885679946010    0.000000000000
 O    0.833418316727    0.099120946010    0.000000000000
 H    1.467954316727    0.837683946010    0.000000000000
NA    0.975271342807   -1.494578435615    0.000000000000
