9

 C   -1.503316189829   -0.259111768697    0.000000000000
 H   -2.482243189829    0.232676231303    0.000000000000
 H   -1.396170189829   -0.898920768697    0.888272000000
 H   -1.396170189829   -0.898920768697   -0.888272000000
 C   -0.418689189829    0.786472231303    0.000000000000
 O   -0.579793189829    1.996023231303    0.000000000000
 O    0.823596810171    0.209464231303    0.000000000000
 H    1.458132810171    0.948027231303    0.000000000000
NA    1.000913092770   -1.782659995729    0.000000000000
