9

 C   -1.508226943108   -0.203940126051    0.000000000000
 H   -2.487153943108    0.287847873949    0.000000000000
 H   -1.401080943108   -0.843749126051    0.888272000000
 H   -1.401080943108   -0.843749126051   -0.888272000000
 C   -0.423599943108    0.841643873949    0.000000000000
 O   -0.584703943108    2.051194873949    0.000000000000
 O    0.818686056892    0.264635873949    0.000000000000
 H    1.453222056892    1.003198873949    0.000000000000
NA    1.013733967752   -1.926700775786    0.000000000000
