9

 C   -1.513137696386   -0.148768483405    0.000000000000
 H   -2.492064696386    0.343019516595    0.000000000000
 H   -1.405991696386   -0.788577483405    0.888272000000
 H   -1.405991696386   -0.788577483405   -0.888272000000
 C   -0.428510696386    0.896815516595    0.000000000000
 O   -0.589614696386    2.106366516595    0.000000000000
 O    0.813775303614    0.319807516595    0.000000000000
 H    1.448311303614    1.058370516595    0.000000000000
NA    1.026554842733   -2.070741555843    0.000000000000
