9

 C   -1.515593073025   -0.121182662082    0.000000000000
 H   -2.494520073025    0.370605337918    0.000000000000
 H   -1.408447073025   -0.760991662082    0.888272000000
 H   -1.408447073025   -0.760991662082   -0.888272000000
 C   -0.430966073025    0.924401337918    0.000000000000
 O   -0.592070073025    2.133952337918    0.000000000000
 O    0.811319926975    0.347393337918    0.000000000000
 H    1.445855926975    1.085956337918    0.000000000000
NA    1.032965280224   -2.142761945871    0.000000000000
