9

 C   -1.520503826304   -0.066011019436    0.000000000000
 H   -2.499430826304    0.425776980564    0.000000000000
 H   -1.413357826304   -0.705820019436    0.888272000000
 H   -1.413357826304   -0.705820019436   -0.888272000000
 C   -0.435876826304    0.979572980564    0.000000000000
 O   -0.596980826304    2.189123980564    0.000000000000
 O    0.806409173696    0.402564980564    0.000000000000
 H    1.440945173696    1.141127980564    0.000000000000
NA    1.045786155205   -2.286802725928    0.000000000000
