9

 C   -1.522959202943   -0.038425198113    0.000000000000
 H   -2.501886202943    0.453362801887    0.000000000000
 H   -1.415813202943   -0.678234198113    0.888272000000
 H   -1.415813202943   -0.678234198113   -0.888272000000
 C   -0.438332202943    1.007158801887    0.000000000000
 O   -0.599436202943    2.216709801887    0.000000000000
 O    0.803953797057    0.430150801887    0.000000000000
 H    1.438489797057    1.168713801887    0.000000000000
NA    1.052196592696   -2.358823115957    0.000000000000
