9

 C   -1.527869956221    0.016746444533    0.000000000000
 H   -2.506796956221    0.508534444533    0.000000000000
 H   -1.420723956221   -0.623062555467    0.888272000000
 H   -1.420723956221   -0.623062555467   -0.888272000000
 C   -0.443242956221    1.062330444533    0.000000000000
 O   -0.604346956221    2.271881444533    0.000000000000
 O    0.799043043779    0.485322444533    0.000000000000
 H    1.433579043779    1.223885444533    0.000000000000
NA    1.065017467678   -2.502863896014    0.000000000000
