9

 C   -1.530325332861    0.044332265856    0.000000000000
 H   -2.509252332861    0.536120265856    0.000000000000
 H   -1.423179332861   -0.595476734144    0.888272000000
 H   -1.423179332861   -0.595476734144   -0.888272000000
 C   -0.445698332861    1.089916265856    0.000000000000
 O   -0.606802332861    2.299467265856    0.000000000000
 O    0.796587667139    0.512908265856    0.000000000000
 H    1.431123667139    1.251471265856    0.000000000000
NA    1.071427905168   -2.574884286042    0.000000000000
