9

 C   -1.537691462778    0.127089729825    0.000000000000
 H   -2.516618462778    0.618877729825    0.000000000000
 H   -1.430545462778   -0.512719270175    0.888272000000
 H   -1.430545462778   -0.512719270175   -0.888272000000
 C   -0.453064462778    1.172673729825    0.000000000000
 O   -0.614168462778    2.382224729825    0.000000000000
 O    0.789221537222    0.595665729825    0.000000000000
 H    1.423757537222    1.334228729825    0.000000000000
NA    1.090659217641   -2.790945456128    0.000000000000
