9

 C   -1.542602216057    0.182261372472    0.000000000000
 H   -2.521529216057    0.674049372472    0.000000000000
 H   -1.435456216057   -0.457547627528    0.888272000000
 H   -1.435456216057   -0.457547627528   -0.888272000000
 C   -0.457975216057    1.227845372472    0.000000000000
 O   -0.619079216057    2.437396372472    0.000000000000
 O    0.784310783943    0.650837372472    0.000000000000
 H    1.418846783943    1.389400372472    0.000000000000
NA    1.103480092622   -2.934986236185    0.000000000000
