9

 C   -1.547512969335    0.237433015118    0.000000000000
 H   -2.526439969335    0.729221015118    0.000000000000
 H   -1.440366969335   -0.402375984882    0.888272000000
 H   -1.440366969335   -0.402375984882   -0.888272000000
 C   -0.462885969335    1.283017015118    0.000000000000
 O   -0.623989969335    2.492568015118    0.000000000000
 O    0.779400030665    0.706009015118    0.000000000000
 H    1.413936030665    1.444572015118    0.000000000000
NA    1.116300967604   -3.079027016242    0.000000000000
