9

 C   -1.554879099253    0.320190479087    0.000000000000
 H   -2.533806099253    0.811978479087    0.000000000000
 H   -1.447733099253   -0.319618520913    0.888272000000
 H   -1.447733099253   -0.319618520913   -0.888272000000
 C   -0.470252099253    1.365774479087    0.000000000000
 O   -0.631356099253    2.575325479087    0.000000000000
 O    0.772033900747    0.788766479087    0.000000000000
 H    1.406569900747    1.527329479087    0.000000000000
NA    1.135532280076   -3.295088186327    0.000000000000
