9

 C   -1.557334475892    0.347776300410    0.000000000000
 H   -2.536261475892    0.839564300410    0.000000000000
 H   -1.450188475892   -0.292032699590    0.888272000000
 H   -1.450188475892   -0.292032699590   -0.888272000000
 C   -0.472707475892    1.393360300410    0.000000000000
 O   -0.633811475892    2.602911300410    0.000000000000
 O    0.769578524108    0.816352300410    0.000000000000
 H    1.404114524108    1.554915300410    0.000000000000
NA    1.141942717567   -3.367108576356    0.000000000000
