9

 C   -1.567155982449    0.458119585702    0.000000000000
 H   -2.546082982449    0.949907585702    0.000000000000
 H   -1.460009982449   -0.181689414298    0.888272000000
 H   -1.460009982449   -0.181689414298   -0.888272000000
 C   -0.482528982449    1.503703585702    0.000000000000
 O   -0.643632982449    2.713254585702    0.000000000000
 O    0.759757017551    0.926695585702    0.000000000000
 H    1.394293017551    1.665258585702    0.000000000000
NA    1.167584467530   -3.655190136470    0.000000000000
