9

 C   -1.569611359088    0.485705407025    0.000000000000
 H   -2.548538359088    0.977493407025    0.000000000000
 H   -1.462465359088   -0.154103592975    0.888272000000
 H   -1.462465359088   -0.154103592975   -0.888272000000
 C   -0.484984359088    1.531289407025    0.000000000000
 O   -0.646088359088    2.740840407025    0.000000000000
 O    0.757301640912    0.954281407025    0.000000000000
 H    1.391837640912    1.692844407025    0.000000000000
NA    1.173994905021   -3.727210526499    0.000000000000
