9

 C   -1.574522112366    0.540877049671    0.000000000000
 H   -2.553449112366    1.032665049671    0.000000000000
 H   -1.467376112366   -0.098931950329    0.888272000000
 H   -1.467376112366   -0.098931950329   -0.888272000000
 C   -0.489895112366    1.586461049671    0.000000000000
 O   -0.650999112366    2.796012049671    0.000000000000
 O    0.752390887634    1.009453049671    0.000000000000
 H    1.386926887634    1.748016049671    0.000000000000
NA    1.186815780002   -3.871251306556    0.000000000000
