9

 C   -1.579432865645    0.596048692317    0.000000000000
 H   -2.558359865645    1.087836692317    0.000000000000
 H   -1.472286865645   -0.043760307683    0.888272000000
 H   -1.472286865645   -0.043760307683   -0.888272000000
 C   -0.494805865645    1.641632692317    0.000000000000
 O   -0.655909865645    2.851183692317    0.000000000000
 O    0.747480134355    1.064624692317    0.000000000000
 H    1.382016134355    1.803187692317    0.000000000000
NA    1.199636654984   -4.015292086613    0.000000000000
