9

 C   -1.586798995562    0.678806156286    0.000000000000
 H   -2.565725995562    1.170594156286    0.000000000000
 H   -1.479652995562    0.038997156286    0.888272000000
 H   -1.479652995562    0.038997156286   -0.888272000000
 C   -0.502171995562    1.724390156286    0.000000000000
 O   -0.663275995562    2.933941156286    0.000000000000
 O    0.740114004438    1.147382156286    0.000000000000
 H    1.374650004438    1.885945156286    0.000000000000
NA    1.218867967456   -4.231353256698    0.000000000000
