9

 C   -1.606442008676    0.899492726871    0.000000000000
 H   -2.585369008676    1.391280726871    0.000000000000
 H   -1.499296008676    0.259683726871    0.888272000000
 H   -1.499296008676    0.259683726871   -0.888272000000
 C   -0.521815008676    1.945076726871    0.000000000000
 O   -0.682919008676    3.154627726871    0.000000000000
 O    0.720470991324    1.368068726871    0.000000000000
 H    1.355006991324    2.106631726871    0.000000000000
NA    1.270151467382   -4.807516376926    0.000000000000
