9

 C   -1.613808138594    0.982250190840    0.000000000000
 H   -2.592735138594    1.474038190840    0.000000000000
 H   -1.506662138594    0.342441190840    0.888272000000
 H   -1.506662138594    0.342441190840   -0.888272000000
 C   -0.529181138594    2.027834190840    0.000000000000
 O   -0.690285138594    3.237385190840    0.000000000000
 O    0.713104861406    1.450826190840    0.000000000000
 H    1.347640861406    2.189389190840    0.000000000000
NA    1.289382779854   -5.023577547012    0.000000000000
