9

 C   -1.618718891872    1.037421833486    0.000000000000
 H   -2.597645891872    1.529209833486    0.000000000000
 H   -1.511572891872    0.397612833486    0.888272000000
 H   -1.511572891872    0.397612833486   -0.888272000000
 C   -0.534091891872    2.083005833486    0.000000000000
 O   -0.695195891872    3.292556833486    0.000000000000
 O    0.708194108128    1.505997833486    0.000000000000
 H    1.342730108128    2.244560833486    0.000000000000
NA    1.302203654836   -5.167618327069    0.000000000000
