9

 C   -1.623629645151    1.092593476132    0.000000000000
 H   -2.602556645151    1.584381476132    0.000000000000
 H   -1.516483645151    0.452784476132    0.888272000000
 H   -1.516483645151    0.452784476132   -0.888272000000
 C   -0.539002645151    2.138177476132    0.000000000000
 O   -0.700106645151    3.347728476132    0.000000000000
 O    0.703283354849    1.561169476132    0.000000000000
 H    1.337819354849    2.299732476132    0.000000000000
NA    1.315024529817   -5.311659107126    0.000000000000
