9

 C   -1.633451151707    1.202936761424    0.000000000000
 H   -2.612378151707    1.694724761424    0.000000000000
 H   -1.526305151707    0.563127761424    0.888272000000
 H   -1.526305151707    0.563127761424   -0.888272000000
 C   -0.548824151707    2.248520761424    0.000000000000
 O   -0.709928151707    3.458071761424    0.000000000000
 O    0.693461848293    1.671512761424    0.000000000000
 H    1.327997848293    2.410075761424    0.000000000000
NA    1.340666279780   -5.599740667240    0.000000000000
