9

 C   -1.645728034903    1.340865868040    0.000000000000
 H   -2.624655034903    1.832653868040    0.000000000000
 H   -1.538582034903    0.701056868040    0.888272000000
 H   -1.538582034903    0.701056868040   -0.888272000000
 C   -0.561101034903    2.386449868040    0.000000000000
 O   -0.722205034903    3.596000868040    0.000000000000
 O    0.681184965097    1.809441868040    0.000000000000
 H    1.315720965097    2.548004868040    0.000000000000
NA    1.372718467234   -5.959842617382    0.000000000000
