9

 C   -1.655549541460    1.451209153332    0.000000000000
 H   -2.634476541460    1.942997153332    0.000000000000
 H   -1.548403541460    0.811400153332    0.888272000000
 H   -1.548403541460    0.811400153332   -0.888272000000
 C   -0.570922541460    2.496793153332    0.000000000000
 O   -0.732026541460    3.706344153332    0.000000000000
 O    0.671363458540    1.919785153332    0.000000000000
 H    1.305899458540    2.658348153332    0.000000000000
NA    1.398360217197   -6.247924177496    0.000000000000
