9

 C   -1.667826424656    1.589138259947    0.000000000000
 H   -2.646753424656    2.080926259947    0.000000000000
 H   -1.560680424656    0.949329259947    0.888272000000
 H   -1.560680424656    0.949329259947   -0.888272000000
 C   -0.583199424656    2.634722259947    0.000000000000
 O   -0.744303424656    3.844273259947    0.000000000000
 O    0.659086575344    2.057714259947    0.000000000000
 H    1.293622575344    2.796277259947    0.000000000000
NA    1.430412404651   -6.608026127639    0.000000000000
