9

 C   -1.670281801296    1.616724081270    0.000000000000
 H   -2.649208801296    2.108512081270    0.000000000000
 H   -1.563135801296    0.976915081270    0.888272000000
 H   -1.563135801296    0.976915081270   -0.888272000000
 C   -0.585654801296    2.662308081270    0.000000000000
 O   -0.746758801296    3.871859081270    0.000000000000
 O    0.656631198704    2.085300081270    0.000000000000
 H    1.291167198704    2.823863081270    0.000000000000
NA    1.436822842142   -6.680046517668    0.000000000000
