9

 C   -1.682558684492    1.754653187886    0.000000000000
 H   -2.661485684492    2.246441187886    0.000000000000
 H   -1.575412684492    1.114844187886    0.888272000000
 H   -1.575412684492    1.114844187886   -0.888272000000
 C   -0.597931684492    2.800237187886    0.000000000000
 O   -0.759035684492    4.009788187886    0.000000000000
 O    0.644354315508    2.223229187886    0.000000000000
 H    1.278890315508    2.961792187886    0.000000000000
NA    1.468875029596   -7.040148467810    0.000000000000
