9

 C   -1.689924814409    1.837410651855    0.000000000000
 H   -2.668851814409    2.329198651855    0.000000000000
 H   -1.582778814409    1.197601651855    0.888272000000
 H   -1.582778814409    1.197601651855   -0.888272000000
 C   -0.605297814409    2.882994651855    0.000000000000
 O   -0.766401814409    4.092545651855    0.000000000000
 O    0.636988185591    2.305986651855    0.000000000000
 H    1.271524185591    3.044549651855    0.000000000000
NA    1.488106342068   -7.256209637896    0.000000000000
