9

 C   -1.692380191048    1.864996473178    0.000000000000
 H   -2.671307191048    2.356784473178    0.000000000000
 H   -1.585234191048    1.225187473178    0.888272000000
 H   -1.585234191048    1.225187473178   -0.888272000000
 C   -0.607753191048    2.910580473178    0.000000000000
 O   -0.768857191048    4.120131473178    0.000000000000
 O    0.634532808952    2.333572473178    0.000000000000
 H    1.269068808952    3.072135473178    0.000000000000
NA    1.494516779559   -7.328230027924    0.000000000000
