9

 C   -1.694835567688    1.892582294501    0.000000000000
 H   -2.673762567688    2.384370294501    0.000000000000
 H   -1.587689567688    1.252773294501    0.888272000000
 H   -1.587689567688    1.252773294501   -0.888272000000
 C   -0.610208567688    2.938166294501    0.000000000000
 O   -0.771312567688    4.147717294501    0.000000000000
 O    0.632077432312    2.361158294501    0.000000000000
 H    1.266613432312    3.099721294501    0.000000000000
NA    1.500927217049   -7.400250417953    0.000000000000
