9

 C   -1.697290944327    1.920168115824    0.000000000000
 H   -2.676217944327    2.411956115824    0.000000000000
 H   -1.590144944327    1.280359115824    0.888272000000
 H   -1.590144944327    1.280359115824   -0.888272000000
 C   -0.612663944327    2.965752115824    0.000000000000
 O   -0.773767944327    4.175303115824    0.000000000000
 O    0.629622055673    2.388744115824    0.000000000000
 H    1.264158055673    3.127307115824    0.000000000000
NA    1.507337654540   -7.472270807981    0.000000000000
