11

 H   -0.539143109269    2.297602138374    3.935588614974
 H   -0.284803109269    0.641922138374    4.534968614974
 H   -1.904393109269    1.159492138374    4.011028614974
 C   -0.827893109269    1.243792138374    3.787578614974
 S   -0.456903109269    0.686252138374    2.089788614974
 K    0.105246890731   -0.158077861626   -0.481381385026
 S    0.369642340922   -0.555190750464   -1.690677212951
 C    0.740635564848   -1.112731676268   -3.388470531896
 H    0.455008212648   -2.167530139109   -3.535474393630
 H    0.194923596304   -0.513063084260   -4.135710046072
 H    1.816644890221   -1.025230105659   -3.613082618062
