11

 H   -0.553520937968    2.319197143453    4.001350140929
 H   -0.299180937968    0.663517143453    4.600730140929
 H   -1.918770937968    1.181087143453    4.076790140929
 C   -0.842270937968    1.265387143453    3.853340140929
 S   -0.471280937968    0.707847143453    2.155550140929
 K    0.090869062032   -0.136482856547   -0.415619859071
 S    0.395940735329   -0.594690035975   -1.810961198985
 C    0.766933959256   -1.152230961779   -3.508754517929
 H    0.481306607056   -2.207029424620   -3.655758379663
 H    0.221221990711   -0.552562369771   -4.255994032105
 H    1.842943284628   -1.064729391169   -3.733366604096
