11

 H   -0.575087681017    2.351589651072    4.099992429862
 H   -0.320747681017    0.695909651072    4.699372429862
 H   -1.940337681017    1.213479651072    4.175432429862
 C   -0.863837681017    1.297779651072    3.951982429862
 S   -0.492847681017    0.740239651072    2.254192429862
 K    0.069302318983   -0.104090348928   -0.316977570138
 S    0.435388326940   -0.653938964241   -1.991387178035
 C    0.806381550867   -1.211479890046   -3.689180496979
 H    0.520754198666   -2.266278352886   -3.836184358714
 H    0.260669582323   -0.611811298037   -4.436420011155
 H    1.882390876240   -1.123978319437   -3.913792583145
