11

 H   -1.164578657671    3.236984859323    6.796214994024
 H   -0.910238657671    1.581304859323    7.395594994024
 H   -2.529828657671    2.098874859323    6.871654994024
 C   -1.453328657671    2.183174859323    6.648204994024
 S   -1.082338657671    1.625634859323    4.950414994024
 K   -0.520188657671    0.781304859323    2.379244994024
 S    1.513622497646   -2.273409670195   -6.923030605400
 C    1.884615721573   -2.830950596000   -8.620823924345
 H    1.598988369370   -3.885749058840   -8.767827786080
 H    1.338903753031   -2.231282003990   -9.368063438522
 H    2.960625046946   -2.743449025393   -8.845436010511
