11

 H   -0.646976824511    2.459564676468    4.428800059638
 H   -0.392636824511    0.803884676468    5.028180059638
 H   -2.012226824511    1.321454676468    4.504240059638
 C   -0.935726824511    1.405754676468    4.280790059638
 S   -0.564736824511    0.848214676468    2.583000059638
 K   -0.002586824511    0.003884676468    0.011830059638
 S    0.566880298978   -0.851435391797   -2.592807108201
 C    0.937873522904   -1.408976317601   -4.290600427146
 H    0.652246170704   -2.463774780442   -4.437604288880
 H    0.392161554360   -0.809307725593   -5.037839941322
 H    2.013882848277   -1.321474746992   -4.515212513312
