11

 H   -0.654165738860    2.470362179008    4.461680822615
 H   -0.399825738860    0.814682179008    5.061060822615
 H   -2.019415738860    1.332252179008    4.537120822615
 C   -0.942915738860    1.416552179008    4.313670822615
 S   -0.571925738860    0.859012179008    2.615880822615
 K   -0.009775738860    0.014682179008    0.044710822615
 S    0.580029496182   -0.871185034552   -2.652949101218
 C    0.951022720108   -1.428725960357   -4.350742420163
 H    0.665395367908   -2.483524423197   -4.497746281897
 H    0.405310751564   -0.829057368348   -5.097981934339
 H    2.027032045481   -1.341224389748   -4.575354506329
