11

 H   -0.668543567559    2.491957184087    4.527442348571
 H   -0.414203567559    0.836277184087    5.126822348571
 H   -2.033793567559    1.353847184087    4.602882348571
 C   -0.957293567559    1.438147184087    4.379432348571
 S   -0.586303567559    0.880607184087    2.681642348571
 K   -0.024153567559    0.036277184087    0.110472348571
 S    0.606327890589   -0.910684320063   -2.773233087251
 C    0.977321114515   -1.468225245868   -4.471026406196
 H    0.691693762315   -2.523023708708   -4.618030267930
 H    0.431609145971   -0.868556653860   -5.218265920372
 H    2.053330439888   -1.380723675258   -4.695638492362
