11

 H   -0.711677053656    2.556742199325    4.724726926436
 H   -0.457337053656    0.901062199325    5.324106926436
 H   -2.076927053656    1.418632199325    4.800166926436
 C   -1.000427053656    1.502932199325    4.576716926436
 S   -0.629437053656    0.945392199325    2.878926926436
 K   -0.067287053656    0.101062199325    0.307756926436
 S    0.685223073811   -1.029182176597   -3.134085045351
 C    1.056216297738   -1.586723102401   -4.831878364296
 H    0.770588945538   -2.641521565242   -4.978882226030
 H    0.510504329193   -0.987054510393   -5.579117878472
 H    2.132225623110   -1.499221531791   -5.056490450463
