11

 H   -0.718865968005    2.567539701865    4.757607689414
 H   -0.464525968005    0.911859701865    5.356987689414
 H   -2.084115968005    1.429429701865    4.833047689414
 C   -1.007615968005    1.513729701865    4.609597689414
 S   -0.636625968005    0.956189701865    2.911807689414
 K   -0.074475968005    0.111859701865    0.340637689414
 S    0.698372271015   -1.048931819352   -3.194227038368
 C    1.069365494941   -1.606472745157   -4.892020357313
 H    0.783738142742   -2.661271207997   -5.039024219046
 H    0.523653526397   -1.006804153148   -5.639259871489
 H    2.145374820314   -1.518971174547   -5.116632443479
