11

 H   -0.761999454102    2.632324717103    4.954892267279
 H   -0.507659454102    0.976644717103    5.554272267279
 H   -2.127249454102    1.494214717103    5.030332267279
 C   -1.050749454102    1.578514717103    4.806882267279
 S   -0.679759454102    1.020974717103    3.109092267279
 K   -0.117609454102    0.176644717103    0.537922267279
 S    0.777267454237   -1.167429675885   -3.555078996468
 C    1.148260678164   -1.724970601690   -5.252872315412
 H    0.862633325963   -2.779769064530   -5.399876177146
 H    0.602548709620   -1.125302009681   -6.000111829589
 H    2.224270003537   -1.637469031081   -5.477484401579
