11

 H   -0.805132940199    2.697109732341    5.152176845145
 H   -0.550792940199    1.041429732341    5.751556845145
 H   -2.170382940199    1.558999732341    5.227616845145
 C   -1.093882940199    1.643299732341    5.004166845145
 S   -0.722892940199    1.085759732341    3.306376845145
 K   -0.160742940199    0.241429732341    0.735206845145
 S    0.856162637460   -1.285927532419   -3.915930954568
 C    1.227155861386   -1.843468458223   -5.613724273512
 H    0.941528509183   -2.898266921063   -5.760728135247
 H    0.681443892844   -1.243799866213   -6.360963787689
 H    2.303165186759   -1.755966887616   -5.838336359678
