11

 H   -0.841077511946    2.751097245039    5.316580660033
 H   -0.586737511946    1.095417245039    5.915960660033
 H   -2.206327511946    1.612987245039    5.392020660033
 C   -1.129827511946    1.697287245039    5.168570660033
 S   -0.758837511946    1.139747245039    3.470780660033
 K   -0.196687511946    0.295417245039    0.899610660033
 S    0.921908623479   -1.384675746196   -4.216640919651
 C    1.292901847405   -1.942216672001   -5.914434238596
 H    1.007274495205   -2.997015134841   -6.061438100329
 H    0.747189878860   -1.342548079993   -6.661673752772
 H    2.368911172777   -1.854715101391   -6.139046324762
