11

 H   -0.848266426295    2.761894747579    5.349461423010
 H   -0.593926426295    1.106214747579    5.948841423010
 H   -2.213516426295    1.623784747579    5.424901423010
 C   -1.137016426295    1.708084747579    5.201451423010
 S   -0.766026426295    1.150544747579    3.503661423010
 K   -0.203876426295    0.306214747579    0.932491423010
 S    0.935057820682   -1.404425388952   -4.276782912668
 C    1.306051044609   -1.961966314756   -5.974576231612
 H    1.020423692409   -3.016764777597   -6.121580093346
 H    0.760339076064   -1.362297722748   -6.721815745788
 H    2.382060369981   -1.874464744147   -6.199188317779
