11

 H   -0.855455340645    2.772692250118    5.382342185988
 H   -0.601115340645    1.117012250118    5.981722185988
 H   -2.220705340645    1.634582250118    5.457782185988
 C   -1.144205340645    1.718882250118    5.234332185988
 S   -0.773215340645    1.161342250118    3.536542185988
 K   -0.211065340645    0.317012250118    0.965372185988
 S    0.948207017886   -1.424175031707   -4.336924905684
 C    1.319200241812   -1.981715957512   -6.034718224629
 H    1.033572889615   -3.036514420353   -6.181722086362
 H    0.773488273266   -1.382047365505   -6.781957738805
 H    2.395209567185   -1.894214386900   -6.259330310796
