11

 H   -0.862644254994    2.783489752658    5.415222948966
 H   -0.608304254994    1.127809752658    6.014602948966
 H   -2.227894254994    1.645379752658    5.490662948966
 C   -1.151394254994    1.729679752658    5.267212948966
 S   -0.780404254994    1.172139752658    3.569422948966
 K   -0.218254254994    0.327809752658    0.998252948966
 S    0.961356215090   -1.443924674463   -4.397066898701
 C    1.332349439016   -2.001465600267   -6.094860217646
 H    1.046722086816   -3.056264063108   -6.241864079380
 H    0.786637470472   -1.401797008259   -6.842099731822
 H    2.408358764389   -1.913964029658   -6.319472303812
