11

 H   -0.869833169344    2.794287255198    5.448103711943
 H   -0.615493169344    1.138607255198    6.047483711943
 H   -2.235083169344    1.656177255198    5.523543711943
 C   -1.158583169344    1.740477255198    5.300093711943
 S   -0.787593169344    1.182937255198    3.602303711943
 K   -0.225443169344    0.338607255198    1.031133711943
 S    0.974505412293   -1.463674317218   -4.457208891718
 C    1.345498636220   -2.021215243023   -6.155002210662
 H    1.059871284020   -3.076013705863   -6.302006072396
 H    0.799786667675   -1.421546651015   -6.902241724838
 H    2.421507961592   -1.933713672413   -6.379614296829
