11

 H   -0.877022083693    2.805084757737    5.480984474921
 H   -0.622682083693    1.149404757737    6.080364474921
 H   -2.242272083693    1.666974757737    5.556424474921
 C   -1.165772083693    1.751274757737    5.332974474921
 S   -0.794782083693    1.193734757737    3.635184474921
 K   -0.232632083693    0.349404757737    1.064014474921
 S    0.987654609497   -1.483423959974   -4.517350884734
 C    1.358647833424   -2.040964885779   -6.215144203679
 H    1.073020481224   -3.095763348619   -6.362148065413
 H    0.812935864879   -1.441296293770   -6.962383717855
 H    2.434657158796   -1.953463315169   -6.439756289845
