11

 H   -0.934533398489    2.891464778054    5.744030578741
 H   -0.680193398489    1.235784778054    6.343410578741
 H   -2.299783398489    1.753354778054    5.819470578741
 C   -1.223283398489    1.837654778054    5.596020578741
 S   -0.852293398489    1.280114778054    3.898230578741
 K   -0.290143398489    0.435784778054    1.327060578741
 S    1.092848187127   -1.641421102018   -4.998486828867
 C    1.463841411053   -2.198962027823   -6.696280147812
 H    1.178214058853   -3.253760490663   -6.843284009546
 H    0.918129442509   -1.599293435815   -7.443519661988
 H    2.539850736426   -2.111460457213   -6.920892233979
