11

 H   -0.941722312838    2.902262280594    5.776911341719
 H   -0.687382312838    1.246582280594    6.376291341719
 H   -2.306972312838    1.764152280594    5.852351341719
 C   -1.230472312838    1.848452280594    5.628901341719
 S   -0.859482312838    1.290912280594    3.931111341719
 K   -0.297332312838    0.446582280594    1.359941341719
 S    1.105997384331   -1.661170744774   -5.058628821884
 C    1.476990608257   -2.218711670578   -6.756422140829
 H    1.191363256056   -3.273510133419   -6.903426002563
 H    0.931278639713   -1.619043078569   -7.503661655005
 H    2.552999933630   -2.131210099970   -6.981034226995
