11

 H   -0.956100141537    2.923857285673    5.842672867674
 H   -0.701760141537    1.268177285673    6.442052867674
 H   -2.321350141537    1.785747285673    5.918112867674
 C   -1.244850141537    1.870047285673    5.694662867674
 S   -0.873860141537    1.312507285673    3.996872867674
 K   -0.311710141537    0.468177285673    1.425702867674
 S    1.132295778738   -1.700670030285   -5.178912807917
 C    1.503289002665   -2.258210956089   -6.876706126862
 H    1.217661650464   -3.313009418930   -7.023709988596
 H    0.957577034120   -1.658542364081   -7.623945641038
 H    2.579298328037   -2.170709385480   -7.101318213029
