11

 H   -0.970477970236    2.945452290753    5.908434393629
 H   -0.716137970236    1.289772290753    6.507814393629
 H   -2.335727970236    1.807342290753    5.983874393629
 C   -1.259227970236    1.891642290753    5.760424393629
 S   -0.888237970236    1.334102290753    4.062634393629
 K   -0.326087970236    0.489772290753    1.491464393629
 S    1.158594173146   -1.740169315796   -5.299196793951
 C    1.529587397072   -2.297710241601   -6.996990112896
 H    1.243960044872   -3.352508704441   -7.143993974629
 H    0.983875428527   -1.698041649592   -7.744229627072
 H    2.605596722445   -2.210208670991   -7.221602199062
