11

 H   -0.977666884585    2.956249793292    5.941315156607
 H   -0.723326884585    1.300569793292    6.540695156607
 H   -2.342916884585    1.818139793292    6.016755156607
 C   -1.266416884585    1.902439793292    5.793305156607
 S   -0.895426884585    1.344899793292    4.095515156607
 K   -0.333276884585    0.500569793292    1.524345156607
 S    1.171743370349   -1.759918958551   -5.359338786967
 C    1.542736594276   -2.317459884356   -7.057132105912
 H    1.257109242077   -3.372258347197   -7.204135967646
 H    0.997024625730   -1.717791292348   -7.804371620088
 H    2.618745919648   -2.229958313745   -7.281744192079
