11

 H   -0.984855798935    2.967047295832    5.974195919585
 H   -0.730515798935    1.311367295832    6.573575919585
 H   -2.350105798935    1.828937295832    6.049635919585
 C   -1.273605798935    1.913237295832    5.826185919585
 S   -0.902615798935    1.355697295832    4.128395919585
 K   -0.340465798935    0.511367295832    1.557225919585
 S    1.184892567553   -1.779668601307   -5.419480779984
 C    1.555885791480   -2.337209527112   -7.117274098929
 H    1.270258439279   -3.392007989952   -7.264277960663
 H    1.010173822935   -1.737540935103   -7.864513613105
 H    2.631895116852   -2.249707956502   -7.341886185095
