11

 H   -1.013611456332    3.010237305991    6.105718971495
 H   -0.759271456332    1.354557305991    6.705098971495
 H   -2.378861456332    1.872127305991    6.181158971495
 C   -1.302361456332    1.956427305991    5.957708971495
 S   -0.931371456332    1.398887305991    4.259918971495
 K   -0.369221456332    0.554557305991    1.688748971495
 S    1.237489356368   -1.858667172329   -5.660048752051
 C    1.608482580294   -2.416208098134   -7.357842070996
 H    1.322855228094   -3.471006560974   -7.504845932729
 H    1.062770611750   -1.816539506125   -8.105081585172
 H    2.684491905667   -2.328706527524   -7.582454157162
