11

 H   -1.020800370682    3.021034808530    6.138599734473
 H   -0.766460370682    1.365354808530    6.737979734473
 H   -2.386050370682    1.882924808530    6.214039734473
 C   -1.309550370682    1.967224808530    5.990589734473
 S   -0.938560370682    1.409684808530    4.292799734473
 K   -0.376410370682    0.565354808530    1.721629734473
 S    1.250638553572   -1.878416815085   -5.720190745067
 C    1.621631777498   -2.435957740889   -7.417984064012
 H    1.336004425298   -3.490756203730   -7.564987925746
 H    1.075919808954   -1.836289148881   -8.165223578188
 H    2.697641102871   -2.348456170280   -7.642596150178
