11

 H   -1.042367113730    3.053427316149    6.237242023405
 H   -0.788027113730    1.397747316149    6.836622023405
 H   -2.407617113730    1.915317316149    6.312682023405
 C   -1.331117113730    1.999617316149    6.089232023405
 S   -0.960127113730    1.442077316149    4.391442023405
 K   -0.397977113730    0.597747316149    1.820272023405
 S    1.290086145183   -1.937665743351   -5.900616724117
 C    1.661079369109   -2.495206669156   -7.598410043062
 H    1.375452016910   -3.550005131997   -7.745413904796
 H    1.115367400564   -1.895538077148   -8.345649557238
 H    2.737088694482   -2.407705098545   -7.823022129229
