11

 H   -1.056744942429    3.075022321228    6.303003549361
 H   -0.802404942429    1.419342321228    6.902383549361
 H   -2.421994942429    1.936912321228    6.378443549361
 C   -1.345494942429    2.021212321228    6.154993549361
 S   -0.974504942429    1.463672321228    4.457203549361
 K   -0.412354942429    0.619342321228    1.886033549361
 S    1.316384539590   -1.977165028862   -6.020900710151
 C    1.687377763517   -2.534705954667   -7.718694029095
 H    1.401750411316   -3.589504417507   -7.865697890829
 H    1.141665794973   -1.935037362658   -8.465933543272
 H    2.763387088889   -2.447204384058   -7.943306115262
