11

 H   -1.085500599827    3.118212331387    6.434526601271
 H   -0.831160599827    1.462532331387    7.033906601271
 H   -2.450750599827    1.980102331387    6.509966601271
 C   -1.374250599827    2.064402331387    6.286516601271
 S   -1.003260599827    1.506862331387    4.588726601271
 K   -0.441110599827    0.662532331387    2.017556601271
 S    1.368981328405   -2.056163599885   -6.261468682217
 C    1.739974552332   -2.613704525689   -7.959262001162
 H    1.454347200131   -3.668502988529   -8.106265862896
 H    1.194262583788   -2.014035933681   -8.706501515338
 H    2.815983877704   -2.526202955080   -8.183874087328
