11

 H   -1.114256257225    3.161402341546    6.566049653181
 H   -0.859916257225    1.505722341546    7.165429653181
 H   -2.479506257225    2.023292341546    6.641489653181
 C   -1.403006257225    2.107592341546    6.418039653181
 S   -1.032016257225    1.550052341546    4.720249653181
 K   -0.469866257225    0.705722341546    2.149079653181
 S    1.421578117220   -2.135162170907   -6.502036654284
 C    1.792571341147   -2.692703096711   -8.199829973229
 H    1.506943988946   -3.747501559552   -8.346833834963
 H    1.246859372602   -2.093034504703   -8.947069487405
 H    2.868580666519   -2.605201526102   -8.424442059395
