11

 H   -1.157389743321    3.226187356784    6.763334231047
 H   -0.903049743321    1.570507356784    7.362714231047
 H   -2.522639743321    2.088077356784    6.838774231047
 C   -1.446139743321    2.172377356784    6.615324231047
 S   -1.075149743321    1.614837356784    4.917534231047
 K   -0.512999743321    0.770507356784    2.346364231047
 S    1.500473300443   -2.253660027440   -6.862888612384
 C    1.871466524369   -2.811200953244   -8.560681931329
 H    1.585839172169   -3.865999416085   -8.707685793062
 H    1.325754555825   -2.211532361236   -9.307921445505
 H    2.947475849742   -2.723699382635   -8.785294017495
