11

 H   -2.357091004848   -0.238021485660    0.567914724494
 H   -2.474125110238   -0.988120157384   -1.059153530560
 H   -2.357211375261    0.797778420299   -0.915666791847
 C   -2.037169642339   -0.160102996228   -0.481086248235
 S   -0.228269414321   -0.348127459345   -0.612506009743
 S    0.262228100996    1.349294934839    0.572552992730
 C    2.071128326208    1.161131790436    0.441331906872
 H    2.391051405047    0.203239342422    0.875975823913
 H    2.508083809658    1.989134924291    1.019419310239
 H    2.391168413450    1.238994798696   -0.607636853835
 K   -0.040958810635   -1.207489020355    0.048109192326
