11

 H   -2.377052171247   -0.146441731081    0.497514812721
 H   -2.494086276637   -0.896540402805   -1.129553442333
 H   -2.377172541660    0.889358174878   -0.986066703620
 C   -2.057130808738   -0.068523241649   -0.551486160008
 S   -0.248230580720   -0.256547704766   -0.682905921516
 S    0.242266934597    1.440874689418    0.502153080957
 C    2.051167159809    1.252711545015    0.370931995099
 H    2.371090238648    0.294819097001    0.805575912140
 H    2.488122643259    2.080714678870    0.949019398466
 H    2.371207247051    1.330574553275   -0.678036765608
 K    0.007192969762   -1.428404378871    0.217932990396
