11

 H   -2.801226957208    1.799628053709   -0.998483312454
 H   -2.918261062598    1.049529381985   -2.625551567508
 H   -2.801347327621    2.835427959668   -2.482064828795
 C   -2.481305594699    1.877546543141   -2.047484285183
 S   -0.672405366681    1.689522080024   -2.178904046691
 S   -0.181907851364    3.386944474208   -0.993845044218
 C    1.626992373848    3.198781329805   -1.125066130076
 H    1.946915452687    2.240888881791   -0.690422213035
 H    2.063947857298    4.026784463660   -0.546978726709
 H    1.947032461090    3.276644338065   -2.174034890783
 K    1.030418303195   -6.122855747343    3.826688699389
