11

 H   -2.416974504043    0.036717778075    0.356714989175
 H   -2.534008609433   -0.713380893649   -1.270353265879
 H   -2.417094874456    1.072517684034   -1.126866527166
 C   -2.097053141534    0.114636267507   -0.692285983554
 S   -0.288152913516   -0.073388195610   -0.823705745062
 S    0.202344601801    1.624034198574    0.361353257411
 C    2.011244827013    1.435871054171    0.230132171553
 H    2.331167905852    0.477978606157    0.664776088594
 H    2.448200310463    2.263874188026    0.808219574920
 H    2.331284914255    1.513734062431   -0.818836589154
 K    0.103496530555   -1.870235095904    0.557580586537
