11

 H   -2.436935670441    0.128297532654    0.286315077402
 H   -2.553969775831   -0.621801139070   -1.340753177652
 H   -2.437056040854    1.164097438613   -1.197266438939
 C   -2.117014307932    0.206216022086   -0.762685895327
 S   -0.308114079914    0.018191558969   -0.894105656835
 S    0.182383435403    1.715613953153    0.290953345638
 C    1.991283660615    1.527450808750    0.159732259780
 H    2.311206739454    0.569558360736    0.594376176821
 H    2.428239144065    2.355453942605    0.737819663147
 H    2.311323747857    1.605313817010   -0.889236500927
 K    0.151648310952   -2.091150454420    0.727404384607
