11

 H   -2.466877420038    0.265667164521    0.180715209743
 H   -2.583911525428   -0.484431507203   -1.446353045311
 H   -2.466997790451    1.301467070480   -1.302866306598
 C   -2.146956057529    0.343585653953   -0.868285762986
 S   -0.338055829511    0.155561190836   -0.999705524494
 S    0.152441685806    1.852983585020    0.185353477979
 C    1.961341911018    1.664820440617    0.054132392121
 H    2.281264989857    0.706927992603    0.488776309162
 H    2.398297394468    2.492823574472    0.632219795488
 H    2.281381998260    1.742683448877   -0.994836368586
 K    0.223875981548   -2.422523492195    0.982140081713
