11

 H   -2.471867711638    0.288562103166    0.163115231800
 H   -2.588901817028   -0.461536568558   -1.463953023254
 H   -2.471988082051    1.324362009125   -1.320466284541
 C   -2.151946349129    0.366480592598   -0.885885740929
 S   -0.343046121111    0.178456129481   -1.017305502437
 S    0.147451394206    1.875878523665    0.167753500036
 C    1.956351619418    1.687715379262    0.036532414178
 H    2.276274698257    0.729822931248    0.471176331219
 H    2.393307102868    2.515718513117    0.614619817545
 H    2.276391706660    1.765578387522   -1.012436346529
 K    0.235913926647   -2.477752331824    1.024596031230
