11

 H   -2.491828878036    0.380141857744    0.092715320027
 H   -2.608862983426   -0.369956813980   -1.534352935027
 H   -2.491949248449    1.415941763703   -1.390866196314
 C   -2.171907515527    0.458060347176   -0.956285652702
 S   -0.363007287509    0.270035884059   -1.087705414210
 S    0.127490227808    1.967458278243    0.097353588263
 C    1.936390453020    1.779295133840   -0.033867497595
 H    2.256313531859    0.821402685826    0.400776419446
 H    2.373345936470    2.607298267695    0.544219905772
 H    2.256430540262    1.857158142100   -1.082836258302
 K    0.284065707044   -2.698667690340    1.194419829300
