11

 H   -2.521770627633    0.517511489612   -0.012884547633
 H   -2.638804733023   -0.232587182112   -1.639952802687
 H   -2.521890998046    1.553311395571   -1.496466063974
 C   -2.201849265124    0.595429979044   -1.061885520362
 S   -0.392949037106    0.407405515927   -1.193305281870
 S    0.097548478211    2.104827910111   -0.008246279397
 C    1.906448703423    1.916664765708   -0.139467365255
 H    2.226371782262    0.958772317694    0.295176551786
 H    2.343404186873    2.744667899563    0.438620038112
 H    2.226488790665    1.994527773968   -1.188436125962
 K    0.356293377639   -3.030040728115    1.449155526406
