11

 H   -2.531751210832    0.563301366901   -0.048084503519
 H   -2.648785316222   -0.186797304823   -1.675152758573
 H   -2.531871581245    1.599101272860   -1.531666019860
 C   -2.211829848323    0.641219856333   -1.097085476248
 S   -0.402929620305    0.453195393216   -1.228505237756
 S    0.087567895012    2.150617787400   -0.043446235283
 C    1.896468120224    1.962454642997   -0.174667321141
 H    2.216391199063    1.004562194983    0.259976595900
 H    2.333423603674    2.790457776852    0.403420082226
 H    2.216508207466    2.040317651257   -1.223636081848
 K    0.380369267837   -3.140498407373    1.534067425441
