11

 H   -2.536741502432    0.586196305546   -0.065684481462
 H   -2.653775607822   -0.163902366178   -1.692752736516
 H   -2.536861872845    1.621996211505   -1.549265997803
 C   -2.216820139923    0.664114794978   -1.114685454191
 S   -0.407919911905    0.476090331861   -1.246105215699
 S    0.082577603412    2.173512726045   -0.061046213226
 C    1.891477828624    1.985349581642   -0.192267299084
 H    2.211400907463    1.027457133628    0.242376617957
 H    2.328433312074    2.813352715497    0.385820104283
 H    2.211517915866    2.063212589902   -1.241236059791
 K    0.392407212937   -3.195727247002    1.576523374958
