11

 H   -2.541731794032    0.609091244190   -0.083284459406
 H   -2.658765899422   -0.141007427534   -1.710352714460
 H   -2.541852164445    1.644891150149   -1.566865975747
 C   -2.221810431523    0.687009733622   -1.132285432135
 S   -0.412910203505    0.498985270505   -1.263705193643
 S    0.077587311812    2.196407664689   -0.078646191170
 C    1.886487537024    2.008244520286   -0.209867277028
 H    2.206410615863    1.050352072272    0.224776640013
 H    2.323443020474    2.836247654141    0.368220126339
 H    2.206527624266    2.086107528546   -1.258836037735
 K    0.404445158036   -3.250956086631    1.618979324476
