11

 H   -2.551712377231    0.654881121479   -0.118484415292
 H   -2.668746482621   -0.095217550245   -1.745552670346
 H   -2.551832747644    1.690681027438   -1.602065931633
 C   -2.231791014722    0.732799610911   -1.167485388021
 S   -0.422890786704    0.544775147794   -1.298905149529
 S    0.067606728613    2.242197541978   -0.113846147056
 C    1.876506953825    2.054034397575   -0.245067232914
 H    2.196430032664    1.096141949561    0.189576684127
 H    2.313462437275    2.882037531430    0.333020170453
 H    2.196547041067    2.131897405835   -1.294035993621
 K    0.428521048234   -3.361413765889    1.703891223511
