11

 H   -2.556702668830    0.677776060124   -0.136084393235
 H   -2.673736774220   -0.072322611600   -1.763152648289
 H   -2.556823039243    1.713575966083   -1.619665909576
 C   -2.236781306321    0.755694549556   -1.185085365964
 S   -0.427881078303    0.567670086439   -1.316505127472
 S    0.062616437014    2.265092480623   -0.131446124999
 C    1.871516662226    2.076929336220   -0.262667210857
 H    2.191439741065    1.119036888206    0.171976706184
 H    2.308472145676    2.904932470075    0.315420192510
 H    2.191556749468    2.154792344480   -1.311635971564
 K    0.440558993333   -3.416642605518    1.746347173029
