11

 H   -2.571673543629    0.746460876058   -0.188884327065
 H   -2.688707649019   -0.003637795666   -1.815952582119
 H   -2.571793914042    1.782260782017   -1.672465843406
 C   -2.251752181120    0.824379365490   -1.237885299794
 S   -0.442851953102    0.636354902373   -1.369305061302
 S    0.047645562215    2.333777296557   -0.184246058829
 C    1.856545787427    2.145614152154   -0.315467144687
 H    2.176468866266    1.187721704140    0.119176772354
 H    2.293501270877    2.973617286009    0.262620258680
 H    2.176585874669    2.223477160414   -1.364435905394
 K    0.476672828631   -3.582329124405    1.873715021581
