11

 H   -2.616586168025    0.952515323859   -0.347284128554
 H   -2.733620273415    0.202416652135   -1.974352383608
 H   -2.616706538438    1.988315229818   -1.830865644895
 C   -2.296664805516    1.030433813291   -1.396285101283
 S   -0.487764577498    0.842409350174   -1.527704862791
 S    0.002732937819    2.539831744358   -0.342645860318
 C    1.811633163031    2.351668599955   -0.473866946176
 H    2.131556241870    1.393776151941   -0.039223029135
 H    2.248588646481    3.179671733810    0.104220457191
 H    2.131673250273    2.429531608215   -1.522835706883
 K    0.585014334524   -4.079388681067    2.255818567239
