11

 H   -2.641537626022    1.066990017082   -0.435284018271
 H   -2.758571731412    0.316891345358   -2.062352273325
 H   -2.641657996435    2.102789923041   -1.918865534612
 C   -2.321616263513    1.144908506514   -1.484284991000
 S   -0.512716035495    0.956884043397   -1.615704752508
 S   -0.022218520178    2.654306437581   -0.430645750035
 C    1.786681705034    2.466143293178   -0.561866835893
 H    2.106604783873    1.508250845164   -0.127222918852
 H    2.223637188484    3.294146427033    0.016220567474
 H    2.106721792276    2.544006301438   -1.610835596600
 K    0.645204060020   -4.355532879212    2.468098314827
