11

 H   -2.651518209222    1.112779894371   -0.470483974157
 H   -2.768552314612    0.362681222647   -2.097552229211
 H   -2.651638579635    2.148579800330   -1.954065490498
 C   -2.331596846713    1.190698383803   -1.519484946886
 S   -0.522696618695    1.002673920686   -1.650904708394
 S   -0.032199103378    2.700096314870   -0.465845705921
 C    1.776701121834    2.511933170467   -0.597066791779
 H    2.096624200673    1.554040722453   -0.162422874738
 H    2.213656605284    3.339936304322   -0.018979388412
 H    2.096741209076    2.589796178727   -1.646035552486
 K    0.669279950219   -4.465990558471    2.553010213862
