11

 H   -2.656508500821    1.135674833016   -0.488083952100
 H   -2.773542606211    0.385576161292   -2.115152207154
 H   -2.656628871234    2.171474738975   -1.971665468441
 C   -2.336587138312    1.213593322448   -1.537084924829
 S   -0.527686910294    1.025568859331   -1.668504686337
 S   -0.037189394977    2.722991253515   -0.483445683864
 C    1.771710830235    2.534828109112   -0.614666769722
 H    2.091633909074    1.576935661098   -0.180022852681
 H    2.208666313685    3.362831242967   -0.036579366355
 H    2.091750917477    2.612691117372   -1.663635530429
 K    0.681317895318   -4.521219398100    2.595466163380
