11

 H   -2.676469667219    1.227254587594   -0.558483863873
 H   -2.793503772609    0.477155915870   -2.185552118927
 H   -2.676590037632    2.263054493553   -2.042065380214
 C   -2.356548304710    1.305173077026   -1.607484836602
 S   -0.547648076692    1.117148613909   -1.738904598110
 S   -0.057150561375    2.814571008093   -0.553845595637
 C    1.751749663837    2.626407863690   -0.685066681495
 H    2.071672742676    1.668515415676   -0.250422764454
 H    2.188705147287    3.454410997545   -0.106979278128
 H    2.071789751079    2.704270871950   -1.734035442202
 K    0.729469675715   -4.742134756616    2.765289961450
