11

 H   -2.691440542018    1.295939403528   -0.611283797703
 H   -2.808474647408    0.545840731804   -2.238352052757
 H   -2.691560912431    2.331739309487   -2.094865314044
 C   -2.371519179509    1.373857892960   -1.660284770432
 S   -0.562618951491    1.185833429843   -1.791704531940
 S   -0.072121436174    2.883255824027   -0.606645529467
 C    1.736778789038    2.695092679624   -0.737866615325
 H    2.056701867877    1.737200231610   -0.303222698284
 H    2.173734272488    3.523095813479   -0.159779211958
 H    2.056818876280    2.772955687884   -1.786835376032
 K    0.765583511012   -4.907821275503    2.892657810003
