11

 H   -2.711401708416    1.387519158106   -0.681683709476
 H   -2.828435813806    0.637420486382   -2.308751964530
 H   -2.711522078829    2.423319064065   -2.165265225817
 C   -2.391480345907    1.465437647538   -1.730684682205
 S   -0.582580117889    1.277413184421   -1.862104443713
 S   -0.092082602572    2.974835578605   -0.677045441240
 C    1.716817622640    2.786672434202   -0.808266527098
 H    2.036740701479    1.828779986188   -0.373622610057
 H    2.153773106090    3.614675568057   -0.230179123731
 H    2.036857709882    2.864535442462   -1.857235287805
 K    0.813735291409   -5.128736634019    3.062481608073
