11

 H   -2.716392000016    1.410414096751   -0.699283687419
 H   -2.833426105406    0.660315425027   -2.326351942473
 H   -2.716512370429    2.446214002710   -2.182865203760
 C   -2.396470637507    1.488332586183   -1.748284660148
 S   -0.587570409489    1.300308123066   -1.879704421656
 S   -0.097072894172    2.997730517250   -0.694645419183
 C    1.711827331040    2.809567372847   -0.825866505041
 H    2.031750409879    1.851674924833   -0.391222588000
 H    2.148782814490    3.637570506702   -0.247779101674
 H    2.031867418282    2.887430381107   -1.874835265748
 K    0.825773236508   -5.183965473649    3.104937557591
