11

 H   -2.726372583215    1.456203974040   -0.734483643306
 H   -2.843406688605    0.706105302316   -2.361551898360
 H   -2.726492953628    2.492003879999   -2.218065159647
 C   -2.406451220706    1.534122463472   -1.783484616035
 S   -0.597550992688    1.346098000355   -1.914904377543
 S   -0.107053477371    3.043520394539   -0.729845375070
 C    1.701846747841    2.855357250136   -0.861066460928
 H    2.021769826680    1.897464802122   -0.426422543887
 H    2.138802231291    3.683360383991   -0.282979057561
 H    2.021886835083    2.933220258396   -1.910035221635
 K    0.849849126707   -5.294423152907    3.189849456626
