11

 H   -2.731362874814    1.479098912685   -0.752083621249
 H   -2.848396980204    0.729000240961   -2.379151876303
 H   -2.731483245227    2.514898818644   -2.235665137590
 C   -2.411441512305    1.557017402117   -1.801084593978
 S   -0.602541284287    1.368992939000   -1.932504355486
 S   -0.112043768970    3.066415333184   -0.747445353013
 C    1.696856456242    2.878252188781   -0.878666438871
 H    2.016779535081    1.920359740767   -0.444022521830
 H    2.133811939692    3.706255322636   -0.300579035504
 H    2.016896543484    2.956115197041   -1.927635199578
 K    0.861887071806   -5.349651992536    3.232305406143
