11

 H   -2.781265790810    1.708048299131   -0.928083400681
 H   -2.898299896200    0.957949627407   -2.555151655735
 H   -2.781386161223    2.743848205090   -2.411664917022
 C   -2.461344428301    1.785966788563   -1.977084373410
 S   -0.652444200283    1.597942325446   -2.108504134918
 S   -0.161946684966    3.295364719630   -0.923445132445
 C    1.646953540246    3.107201575227   -1.054666218303
 H    1.966876619085    2.149309127213   -0.620022301262
 H    2.083909023696    3.935204709082   -0.476578814936
 H    1.966993627488    3.185064583487   -2.103634979010
 K    0.982266522798   -5.901940388826    3.656864901319
