11

 H   -2.786256082409    1.730943237775   -0.945683378625
 H   -2.903290187799    0.980844566051   -2.572751633679
 H   -2.786376452822    2.766743143734   -2.429264894966
 C   -2.466334719900    1.808861727207   -1.994684351354
 S   -0.657434491882    1.620837264090   -2.126104112862
 S   -0.166936976565    3.318259658274   -0.941045110389
 C    1.641963248647    3.130096513871   -1.072266196247
 H    1.961886327486    2.172204065857   -0.637622279206
 H    2.078918732097    3.958099647726   -0.494178792880
 H    1.962003335889    3.207959522131   -2.121234956954
 K    0.994304467897   -5.957169228456    3.699320850837
