11

 H   -2.796236665608    1.776733115065   -0.980883334511
 H   -2.913270770998    1.026634443341   -2.607951589565
 H   -2.796357036021    2.812533021024   -2.464464850852
 C   -2.476315303099    1.854651604497   -2.029884307240
 S   -0.667415075081    1.666627141380   -2.161304068748
 S   -0.176917559764    3.364049535564   -0.976245066275
 C    1.631982665448    3.175886391161   -1.107466152133
 H    1.951905744287    2.217993943147   -0.672822235092
 H    2.068938148898    4.003889525016   -0.529378748766
 H    1.952022752690    3.253749399421   -2.156434912840
 K    1.018380358096   -6.067626907714    3.784232749872
