16

 N   -1.326264980219    0.083440047833    0.417254492950
 C   -0.094139247952   -0.546850232175    0.418209453258
 N    0.176001688174   -1.867735707143    0.414745264311
 C    1.504130856637   -2.085929599893    0.430312692974
 H    1.817939139607   -3.132608332383    0.433692263665
 N    2.516480299678   -1.177948642752    0.444283963249
 C    2.204263555771    0.132872440497    0.439637559349
 N    3.211890510573    1.057371077802    0.397815722418
 H    4.143342047960    0.726840969050    0.620273656551
 H    2.979153004546    2.017341832841    0.622625967858
 C    0.838762714897    0.509566294364    0.430866471634
 N    0.215233403706    1.748531994994    0.440744680652
 C   -1.084692083451    1.440452606633    0.432289827494
 H   -1.894745612238    2.167033407735    0.436337965357
 H   -2.230054657389   -0.376817076001    0.409651437017
RB   -1.323664640316    0.086856723354   -0.682737127273
