16

 N   -1.326721247487    0.082840542667    0.610263941903
 C   -0.094595515220   -0.547449737341    0.611218902211
 N    0.175545420906   -1.868335212309    0.607754713264
 C    1.503674589369   -2.086529105059    0.623322141927
 H    1.817482872339   -3.133207837549    0.626701712618
 N    2.516024032410   -1.178548147918    0.637293412202
 C    2.203807288503    0.132272935331    0.632647008302
 N    3.211434243305    1.056771572636    0.590825171371
 H    4.142885780692    0.726241463884    0.813283105504
 H    2.978696737278    2.016742327675    0.815635416811
 C    0.838306447629    0.508966789198    0.623875920587
 N    0.214777136438    1.747932489828    0.633754129605
 C   -1.085148350719    1.439853101467    0.625299276447
 H   -1.895201879506    2.166433902569    0.629347414310
 H   -2.230510924657   -0.377416581167    0.602660885970
RB   -1.322938934901    0.087810252515   -0.989723869330
