16

 N   -1.326903754395    0.082600740600    0.687467721484
 C   -0.094778022128   -0.547689539408    0.688422681792
 N    0.175362913998   -1.868575014376    0.684958492845
 C    1.503492082461   -2.086768907126    0.700525921508
 H    1.817300365431   -3.133447639616    0.703905492199
 N    2.515841525502   -1.178787949985    0.714497191783
 C    2.203624781595    0.132033133264    0.709850787883
 N    3.211251736397    1.056531770569    0.668028950952
 H    4.142703273784    0.726001661817    0.890486885085
 H    2.978514230370    2.016502525608    0.892839196392
 C    0.838123940721    0.508726987131    0.701079700168
 N    0.214594629530    1.747692687761    0.710957909186
 C   -1.085330857627    1.439613299400    0.702503056028
 H   -1.895384386414    2.166194100502    0.706551193891
 H   -2.230693431565   -0.377656383234    0.679864665551
RB   -1.322648652735    0.088191664180   -1.112518566153
