16

 N   -1.326995007848    0.082480839567    0.726069611275
 C   -0.094869275581   -0.547809440441    0.727024571583
 N    0.175271660545   -1.868694915409    0.723560382636
 C    1.503400829008   -2.086888808159    0.739127811299
 H    1.817209111978   -3.133567540649    0.742507381990
 N    2.515750272049   -1.178907851018    0.753099081574
 C    2.203533528142    0.131913232231    0.748452677674
 N    3.211160482944    1.056411869536    0.706630840743
 H    4.142612020331    0.725881760784    0.929088774876
 H    2.978422976917    2.016382624575    0.931441086183
 C    0.838032687268    0.508607086098    0.739681589959
 N    0.214503376077    1.747572786728    0.749559798977
 C   -1.085422111080    1.439493398367    0.741104945819
 H   -1.895475639867    2.166074199469    0.745153083682
 H   -2.230784685018   -0.377776284267    0.718466555342
RB   -1.322503511652    0.088382370012   -1.173915914565
