16

 N   -1.327360021663    0.082001235433    0.880477170437
 C   -0.095234289396   -0.548289044575    0.881432130745
 N    0.174906646730   -1.869174519543    0.877967941798
 C    1.503035815193   -2.087368412293    0.893535370461
 H    1.816844098163   -3.134047144783    0.896914941152
 N    2.515385258234   -1.179387455152    0.907506640736
 C    2.203168514327    0.131433628097    0.902860236836
 N    3.210795469129    1.055932265402    0.861038399905
 H    4.142247006516    0.725402156650    1.083496334038
 H    2.978057963102    2.015903020441    1.085848645345
 C    0.837667673453    0.508127481964    0.894089149121
 N    0.214138362262    1.747093182594    0.903967358139
 C   -1.085787124895    1.439013794233    0.895512504981
 H   -1.895840653682    2.165594595335    0.899560642844
 H   -2.231149698833   -0.378255888401    0.872874114504
RB   -1.321922947320    0.089145193341   -1.419505308211
