16

 N   -1.327725035478    0.081521631300    1.034884729599
 C   -0.095599303211   -0.548768648708    1.035839689907
 N    0.174541632915   -1.869654123676    1.032375500960
 C    1.502670801378   -2.087848016426    1.047942929623
 H    1.816479084348   -3.134526748916    1.051322500314
 N    2.515020244419   -1.179867059285    1.061914199898
 C    2.202803500512    0.130954023964    1.057267795998
 N    3.210430455314    1.055452661269    1.015445959067
 H    4.141881992701    0.724922552517    1.237903893200
 H    2.977692949287    2.015423416308    1.240256204507
 C    0.837302659638    0.507647877831    1.048496708283
 N    0.213773348447    1.746613578461    1.058374917301
 C   -1.086152138710    1.438534190100    1.049920064143
 H   -1.896205667497    2.165114991202    1.053968202006
 H   -2.231514712648   -0.378735492534    1.027281673666
RB   -1.321342382988    0.089908016670   -1.665094701857
