16

 N   -1.327816288931    0.081401730267    1.073486619390
 C   -0.095690556664   -0.548888549741    1.074441579698
 N    0.174450379462   -1.869774024709    1.070977390751
 C    1.502579547925   -2.087967917459    1.086544819414
 H    1.816387830895   -3.134646649949    1.089924390105
 N    2.514928990966   -1.179986960318    1.100516089689
 C    2.202712247059    0.130834122931    1.095869685789
 N    3.210339201861    1.055332760236    1.054047848858
 H    4.141790739248    0.724802651484    1.276505782991
 H    2.977601695834    2.015303515275    1.278858094298
 C    0.837211406185    0.507527976798    1.087098598074
 N    0.213682094994    1.746493677428    1.096976807092
 C   -1.086243392163    1.438414289067    1.088521953934
 H   -1.896296920950    2.164995090169    1.092570091797
 H   -2.231605966101   -0.378855393567    1.065883563457
RB   -1.321197241905    0.090098722502   -1.726492050269
