16

 N   -1.328181302746    0.080922126134    1.227894178552
 C   -0.096055570479   -0.549368153874    1.228849138860
 N    0.174085365647   -1.870253628842    1.225384949913
 C    1.502214534110   -2.088447521592    1.240952378576
 H    1.816022817080   -3.135126254082    1.244331949267
 N    2.514563977151   -1.180466564451    1.254923648851
 C    2.202347233244    0.130354518798    1.250277244951
 N    3.209974188046    1.054853156103    1.208455408020
 H    4.141425725433    0.724323047351    1.430913342153
 H    2.977236682019    2.014823911142    1.433265653460
 C    0.836846392370    0.507048372665    1.241506157236
 N    0.213317081179    1.746014073295    1.251384366254
 C   -1.086608405978    1.437934684934    1.242929513096
 H   -1.896661934765    2.164515486036    1.246977650959
 H   -2.231970979916   -0.379334997700    1.220291122619
RB   -1.320616677573    0.090861545831   -1.972081443915
