16

 N   -1.328363809653    0.080682324067    1.305097958133
 C   -0.096238077386   -0.549607955941    1.306052918441
 N    0.173902858740   -1.870493430909    1.302588729494
 C    1.502032027203   -2.088687323659    1.318156158157
 H    1.815840310173   -3.135366056149    1.321535728848
 N    2.514381470244   -1.180706366518    1.332127428432
 C    2.202164726337    0.130114716731    1.327481024532
 N    3.209791681139    1.054613354036    1.285659187601
 H    4.141243218526    0.724083245284    1.508117121734
 H    2.977054175112    2.014584109075    1.510469433041
 C    0.836663885463    0.506808570598    1.318709936817
 N    0.213134574272    1.745774271228    1.328588145835
 C   -1.086790912885    1.437694882867    1.320133292677
 H   -1.896844441672    2.164275683969    1.324181430540
 H   -2.232153486823   -0.379574799767    1.297494902200
RB   -1.320326395407    0.091242957495   -2.094876140738
