16

 N   -1.328546316561    0.080442522000    1.382301737714
 C   -0.096420584294   -0.549847758008    1.383256698022
 N    0.173720351832   -1.870733232976    1.379792509075
 C    1.501849520295   -2.088927125726    1.395359937738
 H    1.815657803265   -3.135605858216    1.398739508429
 N    2.514198963336   -1.180946168585    1.409331208013
 C    2.201982219429    0.129874914664    1.404684804113
 N    3.209609174231    1.054373551969    1.362862967182
 H    4.141060711618    0.723843443217    1.585320901315
 H    2.976871668204    2.014344307008    1.587673212622
 C    0.836481378555    0.506568768531    1.395913716398
 N    0.212952067364    1.745534469161    1.405791925416
 C   -1.086973419793    1.437455080800    1.397337072258
 H   -1.897026948580    2.164035881902    1.401385210121
 H   -2.232335993731   -0.379814601834    1.374698681781
RB   -1.320036113241    0.091624369160   -2.217670837561
