16

 N   -1.328728823468    0.080202719934    1.459505517295
 C   -0.096603091201   -0.550087560074    1.460460477603
 N    0.173537844925   -1.870973035042    1.456996288656
 C    1.501667013388   -2.089166927792    1.472563717319
 H    1.815475296358   -3.135845660282    1.475943288010
 N    2.514016456429   -1.181185970651    1.486534987594
 C    2.201799712522    0.129635112598    1.481888583694
 N    3.209426667324    1.054133749903    1.440066746763
 H    4.140878204711    0.723603641151    1.662524680896
 H    2.976689161297    2.014104504942    1.664876992203
 C    0.836298871648    0.506328966465    1.473117495979
 N    0.212769560457    1.745294667095    1.482995704997
 C   -1.087155926700    1.437215278734    1.474540851839
 H   -1.897209455487    2.163796079836    1.478588989702
 H   -2.232518500638   -0.380054403900    1.451902461362
RB   -1.319745831076    0.092005780824   -2.340465534384
