16

 N   -1.328911330375    0.079962917867    1.536709296876
 C   -0.096785598108   -0.550327362141    1.537664257184
 N    0.173355338018   -1.871212837109    1.534200068237
 C    1.501484506481   -2.089406729859    1.549767496900
 H    1.815292789451   -3.136085462349    1.553147067591
 N    2.513833949522   -1.181425772718    1.563738767175
 C    2.201617205615    0.129395310531    1.559092363275
 N    3.209244160417    1.053893947836    1.517270526344
 H    4.140695697804    0.723363839084    1.739728460477
 H    2.976506654390    2.013864702875    1.742080771784
 C    0.836116364741    0.506089164398    1.550321275560
 N    0.212587053550    1.745054865028    1.560199484578
 C   -1.087338433607    1.436975476667    1.551744631420
 H   -1.897391962394    2.163556277769    1.555792769283
 H   -2.232701007545   -0.380294205967    1.529106240943
RB   -1.319455548910    0.092387192488   -2.463260231207
