16

 N   -1.329002583829    0.079843016834    1.575311186667
 C   -0.096876851562   -0.550447263174    1.576266146975
 N    0.173264084564   -1.871332738142    1.572801958028
 C    1.501393253027   -2.089526630892    1.588369386691
 H    1.815201535997   -3.136205363382    1.591748957382
 N    2.513742696068   -1.181545673751    1.602340656966
 C    2.201525952161    0.129275409498    1.597694253066
 N    3.209152906963    1.053774046803    1.555872416135
 H    4.140604444350    0.723243938051    1.778330350268
 H    2.976415400936    2.013744801842    1.780682661575
 C    0.836025111287    0.505969263365    1.588923165351
 N    0.212495800096    1.744934963995    1.598801374369
 C   -1.087429687061    1.436855575634    1.590346521211
 H   -1.897483215848    2.163436376736    1.594394659074
 H   -2.232792260999   -0.380414107000    1.567708130734
RB   -1.319310407827    0.092577898321   -2.524657579619
