16

 N   -1.329093837283    0.079723115800    1.613913076458
 C   -0.096968105016   -0.550567164208    1.614868036766
 N    0.173172831110   -1.871452639176    1.611403847819
 C    1.501301999573   -2.089646531926    1.626971276482
 H    1.815110282543   -3.136325264416    1.630350847173
 N    2.513651442614   -1.181665574785    1.640942546757
 C    2.201434698707    0.129155508464    1.636296142857
 N    3.209061653509    1.053654145769    1.594474305926
 H    4.140513190896    0.723124037017    1.816932240059
 H    2.976324147482    2.013624900808    1.819284551366
 C    0.835933857833    0.505849362331    1.627525055142
 N    0.212404546642    1.744815062961    1.637403264160
 C   -1.087520940515    1.436735674600    1.628948411002
 H   -1.897574469302    2.163316475702    1.632996548865
 H   -2.232883514453   -0.380534008034    1.606310020525
RB   -1.319165266744    0.092768604153   -2.586054928030
