16

 N   -1.329185090736    0.079603214767    1.652514966248
 C   -0.097059358469   -0.550687065241    1.653469926556
 N    0.173081577657   -1.871572540209    1.650005737609
 C    1.501210746120   -2.089766432959    1.665573166272
 H    1.815019029090   -3.136445165449    1.668952736963
 N    2.513560189161   -1.181785475818    1.679544436547
 C    2.201343445254    0.129035607431    1.674898032647
 N    3.208970400056    1.053534244736    1.633076195716
 H    4.140421937443    0.723004135984    1.855534129849
 H    2.976232894029    2.013504999775    1.857886441156
 C    0.835842604380    0.505729461298    1.666126944932
 N    0.212313293189    1.744695161928    1.676005153950
 C   -1.087612193968    1.436615773567    1.667550300792
 H   -1.897665722755    2.163196574669    1.671598438655
 H   -2.232974767906   -0.380653909067    1.644911910315
RB   -1.319020125661    0.092959309985   -2.647452276442
