16

 N   -1.329276344190    0.079483313734    1.691116856039
 C   -0.097150611923   -0.550806966274    1.692071816347
 N    0.172990324203   -1.871692441242    1.688607627400
 C    1.501119492666   -2.089886333992    1.704175056063
 H    1.814927775636   -3.136565066482    1.707554626754
 N    2.513468935707   -1.181905376851    1.718146326338
 C    2.201252191800    0.128915706398    1.713499922438
 N    3.208879146602    1.053414343703    1.671678085507
 H    4.140330683989    0.722884234951    1.894136019640
 H    2.976141640575    2.013385098742    1.896488330947
 C    0.835751350926    0.505609560265    1.704728834723
 N    0.212222039735    1.744575260895    1.714607043741
 C   -1.087703447422    1.436495872534    1.706152190583
 H   -1.897756976209    2.163076673636    1.710200328446
 H   -2.233066021360   -0.380773810100    1.683513800106
RB   -1.318874984578    0.093150015817   -2.708849624853
