16

 N   -1.329458851097    0.079243511667    1.768320635620
 C   -0.097333118830   -0.551046768341    1.769275595928
 N    0.172807817296   -1.871932243309    1.765811406981
 C    1.500936985759   -2.090126136059    1.781378835644
 H    1.814745268729   -3.136804868549    1.784758406335
 N    2.513286428800   -1.182145178918    1.795350105919
 C    2.201069684893    0.128675904331    1.790703702019
 N    3.208696639695    1.053174541636    1.748881865088
 H    4.140148177082    0.722644432884    1.971339799221
 H    2.975959133668    2.013145296675    1.973692110528
 C    0.835568844019    0.505369758198    1.781932614304
 N    0.212039532828    1.744335458828    1.791810823322
 C   -1.087885954329    1.436256070467    1.783355970164
 H   -1.897939483116    2.162836871569    1.787404108027
 H   -2.233248528267   -0.381013612167    1.760717579687
RB   -1.318584702412    0.093531427482   -2.831644321676
