16

 N   -1.329823864912    0.078763907534    1.922728194782
 C   -0.097698132645   -0.551526372474    1.923683155090
 N    0.172442803481   -1.872411847442    1.920218966143
 C    1.500571971944   -2.090605740192    1.935786394806
 H    1.814380254914   -3.137284472682    1.939165965497
 N    2.512921414985   -1.182624783051    1.949757665081
 C    2.200704671078    0.128196300198    1.945111261181
 N    3.208331625880    1.052694937503    1.903289424250
 H    4.139783163267    0.722164828751    2.125747358383
 H    2.975594119853    2.012665692542    2.128099669690
 C    0.835203830204    0.504890154065    1.936340173466
 N    0.211674519013    1.743855854695    1.946218382484
 C   -1.088250968144    1.435776466334    1.937763529326
 H   -1.898304496931    2.162357267436    1.941811667189
 H   -2.233613542082   -0.381493216300    1.915125138849
RB   -1.318004138080    0.094294250811   -3.077233715322
