16

 N   -1.330097625273    0.078404204434    2.038533864154
 C   -0.097971893006   -0.551886075574    2.039488824462
 N    0.172169043120   -1.872771550542    2.036024635515
 C    1.500298211583   -2.090965443292    2.051592064178
 H    1.814106494553   -3.137644175782    2.054971634869
 N    2.512647654624   -1.182984486151    2.065563334453
 C    2.200430910717    0.127836597098    2.060916930553
 N    3.208057865519    1.052335234403    2.019095093622
 H    4.139509402906    0.721805125651    2.241553027755
 H    2.975320359492    2.012305989442    2.243905339062
 C    0.834930069843    0.504530450965    2.052145842838
 N    0.211400758652    1.743496151595    2.062024051856
 C   -1.088524728505    1.435416763234    2.053569198698
 H   -1.898578257292    2.161997564336    2.057617336561
 H   -2.233887302443   -0.381852919400    2.030930808221
RB   -1.317568714831    0.094866368307   -3.261425760557
