16

 N   -1.330462639088    0.077924600301    2.192941423316
 C   -0.098336906821   -0.552365679707    2.193896383624
 N    0.171804029305   -1.873251154675    2.190432194677
 C    1.499933197768   -2.091445047425    2.205999623340
 H    1.813741480738   -3.138123779915    2.209379194031
 N    2.512282640809   -1.183464090284    2.219970893615
 C    2.200065896902    0.127356992965    2.215324489715
 N    3.207692851704    1.051855630270    2.173502652784
 H    4.139144389091    0.721325521518    2.395960586917
 H    2.974955345677    2.011826385309    2.398312898224
 C    0.834565056028    0.504050846832    2.206553402000
 N    0.211035744837    1.743016547462    2.216431611018
 C   -1.088889742320    1.434937159101    2.207976757860
 H   -1.898943271107    2.161517960203    2.212024895723
 H   -2.234252316258   -0.382332523533    2.185338367383
RB   -1.316988150499    0.095629191636   -3.507015154203
