16

 N   -1.330553892541    0.077804699267    2.231543313106
 C   -0.098428160274   -0.552485580741    2.232498273414
 N    0.171712775852   -1.873371055709    2.229034084467
 C    1.499841944315   -2.091564948459    2.244601513130
 H    1.813650227285   -3.138243680949    2.247981083821
 N    2.512191387356   -1.183583991318    2.258572783405
 C    2.199974643449    0.127237091931    2.253926379505
 N    3.207601598251    1.051735729236    2.212104542574
 H    4.139053135638    0.721205620484    2.434562476707
 H    2.974864092224    2.011706484275    2.436914788014
 C    0.834473802575    0.503930945798    2.245155291790
 N    0.210944491384    1.742896646428    2.255033500808
 C   -1.088980995773    1.434817258067    2.246578647650
 H   -1.899034524560    2.161398059169    2.250626785513
 H   -2.234343569711   -0.382452424567    2.223940257173
RB   -1.316843009416    0.095819897468   -3.568412502615
