16

 N   -1.330645145995    0.077684798234    2.270145202897
 C   -0.098519413728   -0.552605481774    2.271100163205
 N    0.171621522398   -1.873490956742    2.267635974258
 C    1.499750690861   -2.091684849492    2.283203402921
 H    1.813558973831   -3.138363581982    2.286582973612
 N    2.512100133902   -1.183703892351    2.297174673196
 C    2.199883389995    0.127117190898    2.292528269296
 N    3.207510344797    1.051615828203    2.250706432365
 H    4.138961882184    0.721085719451    2.473164366498
 H    2.974772838770    2.011586583242    2.475516677805
 C    0.834382549121    0.503811044765    2.283757181581
 N    0.210853237930    1.742776745395    2.293635390599
 C   -1.089072249227    1.434697357034    2.285180537441
 H   -1.899125778014    2.161278158136    2.289228675304
 H   -2.234434823165   -0.382572325600    2.262542146964
RB   -1.316697868333    0.096010603301   -3.629809851026
