16

 N   -1.331010159810    0.077205194101    2.424552762059
 C   -0.098884427543   -0.553085085907    2.425507722367
 N    0.171256508583   -1.873970560875    2.422043533420
 C    1.499385677046   -2.092164453625    2.437610962083
 H    1.813193960016   -3.138843186115    2.440990532774
 N    2.511735120087   -1.184183496484    2.451582232358
 C    2.199518376180    0.126637586765    2.446935828458
 N    3.207145330982    1.051136224070    2.405113991527
 H    4.138596868369    0.720606115318    2.627571925660
 H    2.974407824955    2.011106979109    2.629924236967
 C    0.834017535306    0.503331440632    2.438164740743
 N    0.210488224115    1.742297141262    2.448042949761
 C   -1.089437263042    1.434217752901    2.439588096603
 H   -1.899490791829    2.160798554003    2.443636234466
 H   -2.234799836980   -0.383051929733    2.416949706126
RB   -1.316117304001    0.096773426629   -3.875399244672
