16

 N   -1.331831440893    0.076126084801    2.771969770174
 C   -0.099705708626   -0.554164195207    2.772924730482
 N    0.170435227500   -1.875049670175    2.769460541535
 C    1.498564395963   -2.093243562925    2.785027970198
 H    1.812372678933   -3.139922295415    2.788407540889
 N    2.510913839004   -1.185262605784    2.798999240473
 C    2.198697095097    0.125558477465    2.794352836573
 N    3.206324049899    1.050057114770    2.752530999642
 H    4.137775587286    0.719527006018    2.974988933775
 H    2.973586543872    2.010027869809    2.977341245082
 C    0.833196254223    0.502252331332    2.785581748858
 N    0.209666943032    1.741218031962    2.795459957876
 C   -1.090258544125    1.433138643601    2.787005104718
 H   -1.900312072912    2.159719444703    2.791053242581
 H   -2.235621118063   -0.384131039033    2.764366714241
RB   -1.314811034255    0.098489779119   -4.427975380376
