16

 N   -1.332378961615    0.075406678601    3.003581108918
 C   -0.100253229348   -0.554883601407    3.004536069226
 N    0.169887706778   -1.875769076375    3.001071880279
 C    1.498016875241   -2.093962969125    3.016639308942
 H    1.811825158211   -3.140641701615    3.020018879633
 N    2.510366318282   -1.185982011984    3.030610579217
 C    2.198149574375    0.124839071265    3.025964175317
 N    3.205776529177    1.049337708570    2.984142338386
 H    4.137228066564    0.718807599818    3.206600272519
 H    2.973039023150    2.009308463609    3.208952583826
 C    0.832648733501    0.501532925132    3.017193087602
 N    0.209119422310    1.740498625762    3.027071296620
 C   -1.090806064847    1.432419237401    3.018616443462
 H   -1.900859593634    2.159000038503    3.022664581325
 H   -2.236168638785   -0.384850445233    2.995978052985
RB   -1.313940187757    0.099634014113   -4.796359470845
