16

 N   -1.332652721976    0.075046975501    3.119386778289
 C   -0.100526989709   -0.555243304507    3.120341738597
 N    0.169613946417   -1.876128779475    3.116877549650
 C    1.497743114880   -2.094322672225    3.132444978313
 H    1.811551397850   -3.141001404715    3.135824549004
 N    2.510092557921   -1.186341715084    3.146416248588
 C    2.197875814014    0.124479368165    3.141769844688
 N    3.205502768816    1.048978005470    3.099948007757
 H    4.136954306203    0.718447896718    3.322405941890
 H    2.972765262789    2.008948760509    3.324758253197
 C    0.832374973140    0.501173222032    3.132998756973
 N    0.208845661949    1.740138922662    3.142876965991
 C   -1.091079825208    1.432059534301    3.134422112833
 H   -1.901133353995    2.158640335403    3.138470250696
 H   -2.236442399146   -0.385210148333    3.111783722356
RB   -1.313504764508    0.100206131609   -4.980551516080
