16

 N   -1.332835228883    0.074807173434    3.196590557870
 C   -0.100709496616   -0.555483106574    3.197545518178
 N    0.169431439510   -1.876368581542    3.194081329231
 C    1.497560607973   -2.094562474292    3.209648757894
 H    1.811368890943   -3.141241206782    3.213028328585
 N    2.509910051014   -1.186581517151    3.223620028169
 C    2.197693307107    0.124239566098    3.218973624269
 N    3.205320261909    1.048738203403    3.177151787338
 H    4.136771799296    0.718208094651    3.399609721471
 H    2.972582755882    2.008708958442    3.401962032778
 C    0.832192466233    0.500933419965    3.210202536554
 N    0.208663155042    1.739899120595    3.220080745572
 C   -1.091262332115    1.431819732234    3.211625892414
 H   -1.901315860902    2.158400533336    3.215674030277
 H   -2.236624906053   -0.385449950400    3.188987501937
RB   -1.313214482342    0.100587543274   -5.103346212903
