16

 N   -1.333108989244    0.074447470334    3.312396227242
 C   -0.100983256977   -0.555842809674    3.313351187550
 N    0.169157679149   -1.876728284642    3.309886998603
 C    1.497286847612   -2.094922177392    3.325454427266
 H    1.811095130582   -3.141600909882    3.328833997957
 N    2.509636290653   -1.186941220251    3.339425697541
 C    2.197419546746    0.123879862998    3.334779293641
 N    3.205046501548    1.048378500303    3.292957456710
 H    4.136498038935    0.717848391551    3.515415390843
 H    2.972308995521    2.008349255342    3.517767702150
 C    0.831918705872    0.500573716865    3.326008205926
 N    0.208389394681    1.739539417495    3.335886414944
 C   -1.091536092476    1.431460029134    3.327431561786
 H   -1.901589621263    2.158040830236    3.331479699649
 H   -2.236898666414   -0.385809653500    3.304793171309
RB   -1.312779059093    0.101159660770   -5.287538258138
