16

 N   -1.333200242698    0.074327569301    3.350998117033
 C   -0.101074510431   -0.555962710707    3.351953077341
 N    0.169066425695   -1.876848185675    3.348488888394
 C    1.497195594158   -2.095042078425    3.364056317057
 H    1.811003877128   -3.141720810915    3.367435887748
 N    2.509545037199   -1.187061121284    3.378027587332
 C    2.197328293292    0.123759961965    3.373381183432
 N    3.204955248094    1.048258599270    3.331559346501
 H    4.136406785481    0.717728490518    3.554017280634
 H    2.972217742067    2.008229354309    3.556369591941
 C    0.831827452418    0.500453815832    3.364610095717
 N    0.208298141227    1.739419516462    3.374488304735
 C   -1.091627345930    1.431340128101    3.366033451577
 H   -1.901680874717    2.157920929203    3.370081589440
 H   -2.236989919868   -0.385929554533    3.343395061100
RB   -1.312633918010    0.101350366603   -5.348935606549
