16

 N   -1.333291496152    0.074207668268    3.389600006823
 C   -0.101165763885   -0.556082611740    3.390554967131
 N    0.168975172241   -1.876968086708    3.387090778184
 C    1.497104340704   -2.095161979458    3.402658206847
 H    1.810912623674   -3.141840711948    3.406037777538
 N    2.509453783745   -1.187181022317    3.416629477122
 C    2.197237039838    0.123640060932    3.411983073222
 N    3.204863994640    1.048138698237    3.370161236291
 H    4.136315532027    0.717608589485    3.592619170424
 H    2.972126488613    2.008109453276    3.594971481731
 C    0.831736198964    0.500333914799    3.403211985507
 N    0.208206887773    1.739299615429    3.413090194525
 C   -1.091718599384    1.431220227068    3.404635341367
 H   -1.901772128171    2.157801028170    3.408683479230
 H   -2.237081173322   -0.386049455566    3.381996950890
RB   -1.312488776927    0.101541072435   -5.410332954961
