16

 N   -1.333474003059    0.073967866201    3.466803786404
 C   -0.101348270792   -0.556322413807    3.467758746712
 N    0.168792665334   -1.877207888775    3.464294557765
 C    1.496921833797   -2.095401781525    3.479861986428
 H    1.810730116767   -3.142080514015    3.483241557119
 N    2.509271276838   -1.187420824384    3.493833256703
 C    2.197054532931    0.123400258865    3.489186852803
 N    3.204681487733    1.047898896170    3.447365015872
 H    4.136133025120    0.717368787418    3.669822950005
 H    2.971943981706    2.007869651209    3.672175261312
 C    0.831553692057    0.500094112732    3.480415765088
 N    0.208024380866    1.739059813362    3.490293974106
 C   -1.091901106291    1.430980425001    3.481839120948
 H   -1.901954635078    2.157561226103    3.485887258811
 H   -2.237263680229   -0.386289257633    3.459200730471
RB   -1.312198494761    0.101922484099   -5.533127651784
