16

 N   -1.333565256513    0.073847965168    3.505405676195
 C   -0.101439524246   -0.556442314840    3.506360636503
 N    0.168701411880   -1.877327789808    3.502896447556
 C    1.496830580343   -2.095521682558    3.518463876219
 H    1.810638863313   -3.142200415048    3.521843446910
 N    2.509180023384   -1.187540725417    3.532435146494
 C    2.196963279477    0.123280357832    3.527788742594
 N    3.204590234279    1.047778995137    3.485966905663
 H    4.136041771666    0.717248886385    3.708424839796
 H    2.971852728252    2.007749750176    3.710777151103
 C    0.831462438603    0.499974211699    3.519017654879
 N    0.207933127412    1.738939912329    3.528895863897
 C   -1.091992359745    1.430860523968    3.520441010739
 H   -1.902045888532    2.157441325070    3.524489148602
 H   -2.237354933683   -0.386409158666    3.497802620262
RB   -1.312053353678    0.102113189931   -5.594525000195
