27

 P    2.073901010538   -2.477973778279    1.818583245800
 O    1.370101010538   -2.753433778279    3.141313245800
 O    1.629431010538   -1.324333778279    0.859883245800
 O    3.715611010538   -2.449433778279    2.256013245800
 O    2.121561010538   -3.845733778279    0.831683245800
 C    4.658711010538   -2.537293778279    1.186703245800
 H    5.613451010538   -2.127913778279    1.546443245800
 H    4.324781010538   -1.945853778279    0.322093245800
 H    4.812171010538   -3.581353778279    0.871103245800
 C    2.357621010538   -5.069793778279    1.546153245800
 H    2.348061010538   -5.871163778279    0.794213245800
 H    1.575141010538   -5.241263778279    2.300853245800
 H    3.332641010538   -5.031083778279    2.060373245800
CS   -0.734078989462    0.877106221721   -0.643706754200
 P   -1.293395547322    1.545398658614   -1.134165933843
 O   -2.935109168225    1.516854933602   -1.571595054507
 O   -1.341056716692    2.913160262009   -0.147265915953
 O   -0.589602350149    1.820856116001   -2.456904490657
 O   -0.848929272386    0.391757780024   -0.175470181641
 C   -3.878211142938    1.604720766092   -0.502285959403
 H   -4.832946458364    1.195337139318   -0.862024715317
 H   -3.544276606350    1.013277402711    0.362317269591
 H   -4.031663774314    2.648781085683   -0.186684199934
 C   -1.577119717183    4.137225745601   -0.861741859691
 H   -1.567556601637    4.938592725207   -0.109803954464
 H   -0.794636576037    4.308697563573   -1.616441716828
 H   -2.552143332458    4.098511061099   -1.375956856516
