27

 P    2.128677959784   -2.543423335211    1.866616612974
 O    1.424877959784   -2.818883335211    3.189346612974
 O    1.684207959784   -1.389783335211    0.907916612974
 O    3.770387959784   -2.514883335211    2.304046612974
 O    2.176337959784   -3.911183335211    0.879716612974
 C    4.713487959784   -2.602743335211    1.234736612974
 H    5.668227959784   -2.193363335211    1.594476612974
 H    4.379557959784   -2.011303335211    0.370126612974
 H    4.866947959784   -3.646803335211    0.919136612974
 C    2.412397959784   -5.135243335211    1.594186612974
 H    2.402837959784   -5.936613335211    0.842246612974
 H    1.629917959784   -5.306713335211    2.348886612974
 H    3.387417959784   -5.096533335211    2.108406612974
CS   -0.679302040216    0.811656664789   -0.595673387026
 P   -1.406413565435    1.680436832749   -1.233270320562
 O   -3.048127186337    1.651893107737   -1.670699441226
 O   -1.454074734805    3.048198436144   -0.246370302672
 O   -0.702620368261    1.955894290136   -2.556008877375
 O   -0.961947290498    0.526795954159   -0.274574568359
 C   -3.991229161050    1.739758940227   -0.601390346121
 H   -4.945964476477    1.330375313453   -0.961129102035
 H   -3.657294624462    1.148315576847    0.263212882873
 H   -4.144681792426    2.783819259818   -0.285788586653
 C   -1.690137735295    4.272263919736   -0.960846246409
 H   -1.680574619749    5.073630899342   -0.208908341182
 H   -0.907654594149    4.443735737709   -1.715546103547
 H   -2.665161350570    4.233549235234   -1.475061243234
