27

 P    2.146936942865   -2.565239854189    1.882627735365
 O    1.443136942865   -2.840699854189    3.205357735365
 O    1.702466942865   -1.411599854189    0.923927735365
 O    3.788646942865   -2.536699854189    2.320057735365
 O    2.194596942865   -3.932999854189    0.895727735365
 C    4.731746942865   -2.624559854189    1.250747735365
 H    5.686486942865   -2.215179854189    1.610487735365
 H    4.397816942865   -2.033119854189    0.386137735365
 H    4.885206942865   -3.668619854189    0.935147735365
 C    2.430656942865   -5.157059854189    1.610197735365
 H    2.421096942865   -5.958429854189    0.858257735365
 H    1.648176942865   -5.328529854189    2.364897735365
 H    3.405676942865   -5.118349854189    2.124417735365
CS   -0.661043057135    0.789840145811   -0.579662264635
 P   -1.444086238139    1.725449557461   -1.266305116134
 O   -3.085799859041    1.696905832449   -1.703734236798
 O   -1.491747407509    3.093211160856   -0.279405098245
 O   -0.740293040965    2.000907014848   -2.589043672948
 O   -0.999619963202    0.571808678871   -0.307609363932
 C   -4.028901833755    1.784771664939   -0.634425141694
 H   -4.983637149181    1.375388038165   -0.994163897608
 H   -3.694967297167    1.193328301558    0.230178087300
 H   -4.182354465130    2.828831984530   -0.318823382226
 C   -1.727810407999    4.317276644448   -0.993881041982
 H   -1.718247292453    5.118643624054   -0.241943136755
 H   -0.945327266853    4.488748462420   -1.748580899120
 H   -2.702834023275    4.278561959946   -1.508096038807
