27

 P    2.165195925947   -2.587056373166    1.898638857757
 O    1.461395925947   -2.862516373166    3.221368857757
 O    1.720725925947   -1.433416373166    0.939938857757
 O    3.806905925947   -2.558516373166    2.336068857757
 O    2.212855925947   -3.954816373166    0.911738857757
 C    4.750005925947   -2.646376373166    1.266758857757
 H    5.704745925947   -2.236996373166    1.626498857757
 H    4.416075925947   -2.054936373166    0.402148857757
 H    4.903465925947   -3.690436373166    0.951158857757
 C    2.448915925947   -5.178876373166    1.626208857757
 H    2.439355925947   -5.980246373166    0.874268857757
 H    1.666435925947   -5.350346373166    2.380908857757
 H    3.423935925947   -5.140166373166    2.140428857757
CS   -0.642784074053    0.768023626834   -0.563651142243
 P   -1.481758910843    1.770462282172   -1.299339911707
 O   -3.123472531746    1.741918557160   -1.736769032371
 O   -1.529420080213    3.138223885568   -0.312439893817
 O   -0.777965713669    2.045919739560   -2.622078468521
 O   -1.037292635907    0.616821403583   -0.340644159505
 C   -4.066574506459    1.829784389651   -0.667459937267
 H   -5.021309821885    1.420400762876   -1.027198693181
 H   -3.732639969871    1.238341026270    0.197143291727
 H   -4.220027137835    2.873844709242   -0.351858177798
 C   -1.765483080703    4.362289369159   -1.026915837555
 H   -1.755919965157    5.163656348766   -0.274977932328
 H   -0.982999939557    4.533761187132   -1.781615694692
 H   -2.740506695979    4.323574684658   -1.541130834380
