27

 P    2.183454909029   -2.608872892144    1.914649980148
 O    1.479654909029   -2.884332892144    3.237379980148
 O    1.738984909029   -1.455232892144    0.955949980148
 O    3.825164909029   -2.580332892144    2.352079980148
 O    2.231114909029   -3.976632892144    0.927749980148
 C    4.768264909029   -2.668192892144    1.282769980148
 H    5.723004909029   -2.258812892144    1.642509980148
 H    4.434334909029   -2.076752892144    0.418159980148
 H    4.921724909029   -3.712252892144    0.967169980148
 C    2.467174909029   -5.200692892144    1.642219980148
 H    2.457614909029   -6.002062892144    0.890279980148
 H    1.684694909029   -5.372162892144    2.396919980148
 H    3.442194909029   -5.161982892144    2.156439980148
CS   -0.624525090971    0.746207107856   -0.547640019852
 P   -1.519431583547    1.815475006884   -1.332374707280
 O   -3.161145204450    1.786931281872   -1.769803827944
 O   -1.567092752917    3.183236610280   -0.345474689390
 O   -0.815638386373    2.090932464272   -2.655113264094
 O   -1.074965308611    0.661834128294   -0.373678955078
 C   -4.104247179163    1.874797114363   -0.700494732840
 H   -5.058982494589    1.465413487588   -1.060233488754
 H   -3.770312642575    1.283353750982    0.164108496154
 H   -4.257699810539    2.918857433954   -0.384892973371
 C   -1.803155753407    4.407302093871   -1.059950633128
 H   -1.793592637861    5.208669073478   -0.308012727901
 H   -1.020672612261    4.578773911844   -1.814650490265
 H   -2.778179368683    4.368587409369   -1.574165629953
