27

 P    2.219972875193   -2.652505930099    1.946672224931
 O    1.516172875193   -2.927965930099    3.269402224931
 O    1.775502875193   -1.498865930099    0.987972224931
 O    3.861682875193   -2.623965930099    2.384102224931
 O    2.267632875193   -4.020265930099    0.959772224931
 C    4.804782875193   -2.711825930099    1.314792224931
 H    5.759522875193   -2.302445930099    1.674532224931
 H    4.470852875193   -2.120385930099    0.450182224931
 H    4.958242875193   -3.755885930099    0.999192224931
 C    2.503692875193   -5.244325930099    1.674242224931
 H    2.494132875193   -6.045695930099    0.922302224931
 H    1.721212875193   -5.415795930099    2.428942224931
 H    3.478712875193   -5.205615930099    2.188462224931
CS   -0.588007124807    0.702574069901   -0.515617775069
 P   -1.594776928955    1.905500456308   -1.398444298426
 O   -3.236490549858    1.876956731296   -1.835873419090
 O   -1.642438098325    3.273262059703   -0.411544280536
 O   -0.890983731782    2.180957913695   -2.721182855240
 O   -1.150310654019    0.751859577718   -0.439748546224
 C   -4.179592524571    1.964822563786   -0.766564323985
 H   -5.134327839997    1.555438937012   -1.126303079899
 H   -3.845657987983    1.373379200405    0.098038905009
 H   -4.333045155947    3.008882883377   -0.450962564517
 C   -1.878501098816    4.497327543295   -1.126020224274
 H   -1.868937983269    5.298694522901   -0.374082319047
 H   -1.096017957670    4.668799361267   -1.880720081411
 H   -2.853524714091    4.458612858793   -1.640235221098
