27

 P    3.717209487909   -4.441460486254    3.259584261030
 O    3.013409487909   -4.716920486254    4.582314261030
 O    3.272739487909   -3.287820486254    2.300884261030
 O    5.358919487909   -4.412920486254    3.697014261030
 O    3.764869487909   -5.809220486254    2.272684261030
 C    6.302019487909   -4.500780486254    2.627704261030
 H    7.256759487909   -4.091400486254    2.987444261030
 H    5.968089487909   -3.909340486254    1.763094261030
 H    6.455479487909   -5.544840486254    2.312104261030
 C    4.000929487909   -7.033280486254    2.987154261030
 H    3.991369487909   -7.834650486254    2.235214261030
 H    3.218449487909   -7.204750486254    3.741854261030
 H    4.975949487909   -6.994570486254    3.501374261030
CS    0.909229487909   -1.086380486254    0.797294261030
 P   -4.683936090692    5.596543882671   -4.107297535398
 O   -6.325649711594    5.568000157659   -4.544726656062
 O   -4.731597260062    6.964305486066   -3.120397517508
 O   -3.980142893518    5.872001340058   -5.430036092212
 O   -4.239469815755    4.442903004081   -3.148601783196
 C   -7.268751686308    5.655865990149   -3.475417560957
 H   -8.223487001734    5.246482363375   -3.835156316871
 H   -6.934817149720    5.064422626769   -2.610814331963
 H   -7.422204317683    6.699926309740   -3.159815801489
 C   -4.967660260552    8.188370969658   -3.834873461245
 H   -4.958097145006    8.989737949264   -3.082935556019
 H   -4.185177119406    8.359842787631   -4.589573318383
 H   -5.942683875828    8.149656285156   -4.349088458070
