27

 P    2.274749824439   -2.717955487031    1.994705592106
 O    1.570949824439   -2.993415487031    3.317435592106
 O    1.830279824439   -1.564315487031    1.036005592106
 O    3.916459824439   -2.689415487031    2.432135592106
 O    2.322409824439   -4.085715487031    1.007805592106
 C    4.859559824439   -2.777275487031    1.362825592106
 H    5.814299824439   -2.367895487031    1.722565592106
 H    4.525629824439   -2.185835487031    0.498215592106
 H    5.013019824439   -3.821335487031    1.047225592106
 C    2.558469824439   -5.309775487031    1.722275592106
 H    2.548909824439   -6.111145487031    0.970335592106
 H    1.775989824439   -5.481245487031    2.476975592106
 H    3.533489824439   -5.271065487031    2.236495592106
CS   -0.533230175561    0.637124512969   -0.467584407894
 P   -1.707794947067    2.040538630443   -1.497548685144
 O   -3.349508567970    2.011994905431   -1.934977805808
 O   -1.755456116437    3.408300233838   -0.510648667254
 O   -1.004001749894    2.315996087830   -2.820287241958
 O   -1.263328672131    0.886897751853   -0.538852932942
 C   -4.292610542683    2.099860737921   -0.865668710704
 H   -5.247345858110    1.690477111147   -1.225407466618
 H   -3.958676006095    1.508417374541   -0.001065481710
 H   -4.446063174059    3.143921057512   -0.550066951235
 C   -1.991519116928    4.632365717430   -1.225124610992
 H   -1.981956001382    5.433732697036   -0.473186705765
 H   -1.209035975782    4.803837535403   -1.979824468129
 H   -2.966542732203    4.593651032928   -1.739339607817
