27

 P    2.311267790603   -2.761588524986    2.026727836888
 O    1.607467790603   -3.037048524986    3.349457836888
 O    1.866797790603   -1.607948524986    1.068027836888
 O    3.952977790603   -2.733048524986    2.464157836888
 O    2.358927790603   -4.129348524986    1.039827836888
 C    4.896077790603   -2.820908524986    1.394847836888
 H    5.850817790603   -2.411528524986    1.754587836888
 H    4.562147790603   -2.229468524986    0.530237836888
 H    5.049537790603   -3.864968524986    1.079247836888
 C    2.594987790603   -5.353408524986    1.754297836888
 H    2.585427790603   -6.154778524986    1.002357836888
 H    1.812507790603   -5.524878524986    2.508997836888
 H    3.570007790603   -5.314698524986    2.268517836888
CS   -0.496712209397    0.593491475014   -0.435562163112
 P   -1.783140292476    2.130564079866   -1.563618276290
 O   -3.424853913378    2.102020354854   -2.001047396954
 O   -1.830801461846    3.498325683262   -0.576718258400
 O   -1.079347095302    2.406021537254   -2.886356833104
 O   -1.338674017539    0.976923201276   -0.604922524088
 C   -4.367955888091    2.189886187345   -0.931738301849
 H   -5.322691203518    1.780502560570   -1.291477057764
 H   -4.034021351503    1.598442823964   -0.067135072856
 H   -4.521408519467    3.233946506936   -0.616136542381
 C   -2.066864462336    4.722391166853   -1.291194202138
 H   -2.057301346790    5.523758146460   -0.539256296911
 H   -1.284381321190    4.893862984826   -2.045894059275
 H   -3.041888077612    4.683676482352   -1.805409198962
