27

 P    2.329526773684   -2.783405043964    2.042738959280
 O    1.625726773684   -3.058865043964    3.365468959280
 O    1.885056773684   -1.629765043964    1.084038959280
 O    3.971236773684   -2.754865043964    2.480168959280
 O    2.377186773684   -4.151165043964    1.055838959280
 C    4.914336773684   -2.842725043964    1.410858959280
 H    5.869076773684   -2.433345043964    1.770598959280
 H    4.580406773684   -2.251285043964    0.546248959280
 H    5.067796773684   -3.886785043964    1.095258959280
 C    2.613246773684   -5.375225043964    1.770308959280
 H    2.603686773684   -6.176595043964    1.018368959280
 H    1.830766773684   -5.546695043964    2.525008959280
 H    3.588266773684   -5.336515043964    2.284528959280
CS   -0.478453226316    0.571674956036   -0.419551040720
 P   -1.820812965180    2.175576804578   -1.596653071863
 O   -3.462526586083    2.147033079566   -2.034082192527
 O   -1.868474134550    3.543338407974   -0.609753053973
 O   -1.117019768006    2.451034261966   -2.919391628677
 O   -1.376346690244    1.021935925988   -0.637957319661
 C   -4.405628560796    2.234898912057   -0.964773097422
 H   -5.360363876222    1.825515285282   -1.324511853336
 H   -4.071694024208    1.643455548676   -0.100169868428
 H   -4.559081192171    3.278959231647   -0.649171337954
 C   -2.104537135040    4.767403891565   -1.324228997711
 H   -2.094974019494    5.568770871172   -0.572291092484
 H   -1.322053993894    4.938875709538   -2.078928854848
 H   -3.079560750316    4.728689207063   -1.838443994535
