27

 P    2.420821689094   -2.892487638851    2.122794571237
 O    1.717021689094   -3.167947638851    3.445524571237
 O    1.976351689094   -1.738847638851    1.164094571237
 O    4.062531689094   -2.863947638851    2.560224571237
 O    2.468481689094   -4.260247638851    1.135894571237
 C    5.005631689094   -2.951807638851    1.490914571237
 H    5.960371689094   -2.542427638851    1.850654571237
 H    4.671701689094   -2.360367638851    0.626304571237
 H    5.159091689094   -3.995867638851    1.175314571237
 C    2.704541689094   -5.484307638851    1.850364571237
 H    2.694981689094   -6.285677638851    1.098424571237
 H    1.922061689094   -5.655777638851    2.605064571237
 H    3.679561689094   -5.445597638851    2.364584571237
CS   -0.387158310906    0.462592361149   -0.339495428763
 P   -2.009176328700    2.400640428137   -1.761827049727
 O   -3.650889949603    2.372096703125   -2.199256170391
 O   -2.056837498070    3.768402031532   -0.774927031837
 O   -1.305383131527    2.676097885524   -3.084565606541
 O   -1.564710053764    1.246999549547   -0.803131297525
 C   -4.593991924316    2.459962535615   -1.129947075286
 H   -5.548727239742    2.050578908841   -1.489685831200
 H   -4.260057387728    1.868519172235   -0.265343846293
 H   -4.747444555692    3.504022855206   -0.814345315818
 C   -2.292900498561    4.992467515124   -1.489402975575
 H   -2.283337383015    5.793834494730   -0.737465070348
 H   -1.510417357415    5.163939333097   -2.244102832712
 H   -3.267924113836    4.953752830622   -2.003617972399
