27

 P    2.530375587585   -3.023386752716    2.218861305586
 O    1.826575587585   -3.298846752716    3.541591305586
 O    2.085905587585   -1.869746752716    1.260161305586
 O    4.172085587585   -2.994846752716    2.656291305586
 O    2.578035587585   -4.391146752716    1.231961305586
 C    5.115185587585   -3.082706752716    1.586981305586
 H    6.069925587585   -2.673326752716    1.946721305586
 H    4.781255587585   -2.491266752716    0.722371305586
 H    5.268645587585   -4.126766752716    1.271381305586
 C    2.814095587585   -5.615206752716    1.946431305586
 H    2.804535587585   -6.416576752716    1.194491305586
 H    2.031615587585   -5.786676752716    2.701131305586
 H    3.789115587585   -5.576496752716    2.460651305586
CS   -0.277604412415    0.331693247284   -0.243428694414
 P   -2.235212364925    2.670716776407   -1.960035823164
 O   -3.876925985828    2.642173051395   -2.397464943828
 O   -2.282873534295    4.038478379803   -0.973135805274
 O   -1.531419167751    2.946174233795   -3.282774379978
 O   -1.790746089989    1.517075897817   -1.001340070962
 C   -4.820027960541    2.730038883886   -1.328155848723
 H   -5.774763275967    2.320655257111   -1.687894604637
 H   -4.486093423953    2.138595520505   -0.463552619730
 H   -4.973480591917    3.774099203477   -1.012554089255
 C   -2.518936534785    5.262543863394   -1.687611749012
 H   -2.509373419239    6.063910843001   -0.935673843785
 H   -1.736453393639    5.434015681367   -2.442311606149
 H   -3.493960150061    5.223829178893   -2.201826745836
