27

 P    2.548634570667   -3.045203271694    2.234872427977
 O    1.844834570667   -3.320663271694    3.557602427977
 O    2.104164570667   -1.891563271694    1.276172427977
 O    4.190344570667   -3.016663271694    2.672302427977
 O    2.596294570667   -4.412963271694    1.247972427977
 C    5.133444570667   -3.104523271694    1.602992427977
 H    6.088184570667   -2.695143271694    1.962732427977
 H    4.799514570667   -2.513083271694    0.738382427977
 H    5.286904570667   -4.148583271694    1.287392427977
 C    2.832354570667   -5.637023271694    1.962442427977
 H    2.822794570667   -6.438393271694    1.210502427977
 H    2.049874570667   -5.808493271694    2.717142427977
 H    3.807374570667   -5.598313271694    2.476662427977
CS   -0.259345429333    0.309876728306   -0.227417572023
 P   -2.272885037629    2.715729501119   -1.993070618737
 O   -3.914598658532    2.687185776107   -2.430499739401
 O   -2.320546206999    4.083491104515   -1.006170600847
 O   -1.569091840456    2.991186958507   -3.315809175551
 O   -1.828418762693    1.562088622529   -1.034374866535
 C   -4.857700633245    2.775051608598   -1.361190644296
 H   -5.812435948671    2.365667981823   -1.720929400210
 H   -4.523766096657    2.183608245217   -0.496587415302
 H   -5.011153264621    3.819111928188   -1.045588884828
 C   -2.556609207490    5.307556588106   -1.720646544584
 H   -2.547046091943    6.108923567713   -0.968708639357
 H   -1.774126066344    5.479028406079   -2.475346401722
 H   -3.531632822765    5.268841903604   -2.234861541409
