27

 P    2.566893553749   -3.067019790671    2.250883550369
 O    1.863093553749   -3.342479790671    3.573613550369
 O    2.122423553749   -1.913379790671    1.292183550369
 O    4.208603553749   -3.038479790671    2.688313550369
 O    2.614553553749   -4.434779790671    1.263983550369
 C    5.151703553749   -3.126339790671    1.619003550369
 H    6.106443553749   -2.716959790671    1.978743550369
 H    4.817773553749   -2.534899790671    0.754393550369
 H    5.305163553749   -4.170399790671    1.303403550369
 C    2.850613553749   -5.658839790671    1.978453550369
 H    2.841053553749   -6.460209790671    1.226513550369
 H    2.068133553749   -5.830309790671    2.733153550369
 H    3.825633553749   -5.620129790671    2.492673550369
CS   -0.241086446251    0.288060209329   -0.211406449631
 P   -2.310557710333    2.760742225831   -2.026105414310
 O   -3.952271331236    2.732198500819   -2.463534534974
 O   -2.358218879703    4.128503829226   -1.039205396420
 O   -1.606764513160    3.036199683218   -3.348843971123
 O   -1.866091435397    1.607101347241   -1.067409662107
 C   -4.895373305949    2.820064333309   -1.394225439869
 H   -5.850108621375    2.410680706535   -1.753964195783
 H   -4.561438769361    2.228620969929   -0.529622210875
 H   -5.048825937325    3.864124652900   -1.078623680401
 C   -2.594281880194    5.352569312818   -1.753681340157
 H   -2.584718764647    6.153936292424   -1.001743434930
 H   -1.811798739048    5.524041130791   -2.508381197295
 H   -3.569305495469    5.313854628316   -2.267896336982
