27

 P    2.585152536831   -3.088836309649    2.266894672760
 O    1.881352536831   -3.364296309649    3.589624672760
 O    2.140682536831   -1.935196309649    1.308194672760
 O    4.226862536831   -3.060296309649    2.704324672760
 O    2.632812536831   -4.456596309649    1.279994672760
 C    5.169962536831   -3.148156309649    1.635014672760
 H    6.124702536831   -2.738776309649    1.994754672760
 H    4.836032536831   -2.556716309649    0.770404672760
 H    5.323422536831   -4.192216309649    1.319414672760
 C    2.868872536831   -5.680656309649    1.994464672760
 H    2.859312536831   -6.482026309649    1.242524672760
 H    2.086392536831   -5.852126309649    2.749164672760
 H    3.843892536831   -5.641946309649    2.508684672760
CS   -0.222827463169    0.266243690351   -0.195395327240
 P   -2.348230383037    2.805754950543   -2.059140209882
 O   -3.989944003940    2.777211225531   -2.496569330546
 O   -2.395891552407    4.173516553938   -1.072240191992
 O   -1.644437185864    3.081212407930   -3.381878766696
 O   -1.903764108101    1.652114071953   -1.100444457680
 C   -4.933045978653    2.865077058021   -1.427260235442
 H   -5.887781294079    2.455693431246   -1.786998991356
 H   -4.599111442065    2.273633694640   -0.562657006448
 H   -5.086498610029    3.909137377612   -1.111658475973
 C   -2.631954552898    5.397582037529   -1.786716135730
 H   -2.622391437352    6.198949017136   -1.034778230503
 H   -1.849471411752    5.569053855502   -2.541415992868
 H   -3.606978168173    5.358867353028   -2.300931132555
