27

 P    2.603411519913   -3.110652828626    2.282905795152
 O    1.899611519913   -3.386112828626    3.605635795152
 O    2.158941519913   -1.957012828626    1.324205795152
 O    4.245121519913   -3.082112828626    2.720335795152
 O    2.651071519913   -4.478412828626    1.296005795152
 C    5.188221519913   -3.169972828626    1.651025795152
 H    6.142961519913   -2.760592828626    2.010765795152
 H    4.854291519913   -2.578532828626    0.786415795152
 H    5.341681519913   -4.214032828626    1.335425795152
 C    2.887131519913   -5.702472828626    2.010475795152
 H    2.877571519913   -6.503842828626    1.258535795152
 H    2.104651519913   -5.873942828626    2.765175795152
 H    3.862151519913   -5.663762828626    2.524695795152
CS   -0.204568480087    0.244427171374   -0.179384204848
 P   -2.385903055741    2.850767675254   -2.092175005455
 O   -4.027616676644    2.822223950242   -2.529604126119
 O   -2.433564225111    4.218529278650   -1.105274987565
 O   -1.682109858568    3.126225132642   -3.414913562269
 O   -1.941436780805    1.697126796664   -1.133479253253
 C   -4.970718651357    2.910089782733   -1.460295031015
 H   -5.925453966784    2.500706155958   -1.820033786929
 H   -4.636784114769    2.318646419352   -0.595691802021
 H   -5.124171282733    3.954150102324   -1.144693271546
 C   -2.669627225602    5.442594762241   -1.819750931303
 H   -2.660064110056    6.243961741848   -1.067813026076
 H   -1.887144084456    5.614066580214   -2.574450788440
 H   -3.644650840877    5.403880077740   -2.333965928128
