27

 P    2.621670502995   -3.132469347604    2.298916917543
 O    1.917870502995   -3.407929347604    3.621646917543
 O    2.177200502995   -1.978829347604    1.340216917543
 O    4.263380502995   -3.103929347604    2.736346917543
 O    2.669330502995   -4.500229347604    1.312016917543
 C    5.206480502995   -3.191789347604    1.667036917543
 H    6.161220502995   -2.782409347604    2.026776917543
 H    4.872550502995   -2.600349347604    0.802426917543
 H    5.359940502995   -4.235849347604    1.351436917543
 C    2.905390502995   -5.724289347604    2.026486917543
 H    2.895830502995   -6.525659347604    1.274546917543
 H    2.122910502995   -5.895759347604    2.781186917543
 H    3.880410502995   -5.685579347604    2.540706917543
CS   -0.186309497005    0.222610652396   -0.163373082457
 P   -2.423575728445    2.895780399966   -2.125209801028
 O   -4.065289349348    2.867236674954   -2.562638921692
 O   -2.471236897815    4.263542003362   -1.138309783138
 O   -1.719782531272    3.171237857354   -3.447948357842
 O   -1.979109453509    1.742139521376   -1.166514048826
 C   -5.008391324061    2.955102507445   -1.493329826588
 H   -5.963126639488    2.545718880670   -1.853068582502
 H   -4.674456787473    2.363659144064   -0.628726597594
 H   -5.161843955437    3.999162827035   -1.177728067119
 C   -2.707299898306    5.487607486953   -1.852785726876
 H   -2.697736782760    6.288974466560   -1.100847821649
 H   -1.924816757160    5.659079304926   -2.607485584013
 H   -3.682323513581    5.448892802451   -2.367000723700
