27

 P    2.712965418404   -3.241551942491    2.378972529500
 O    2.009165418404   -3.517011942491    3.701702529500
 O    2.268495418404   -2.087911942491    1.420272529500
 O    4.354675418404   -3.213011942491    2.816402529500
 O    2.760625418404   -4.609311942491    1.392072529500
 C    5.297775418404   -3.300871942491    1.747092529500
 H    6.252515418404   -2.891491942491    2.106832529500
 H    4.963845418404   -2.709431942491    0.882482529500
 H    5.451235418404   -4.344931942491    1.431492529500
 C    2.996685418404   -5.833371942491    2.106542529500
 H    2.987125418404   -6.634741942491    1.354602529500
 H    2.214205418404   -6.004841942491    2.861242529500
 H    3.971705418404   -5.794661942491    2.620762529500
CS   -0.095014581596    0.113528057509   -0.083317470500
 P   -2.611939091966    3.120844023525   -2.290383778892
 O   -4.253652712869    3.092300298513   -2.727812899556
 O   -2.659600261336    4.488605626920   -1.303483761002
 O   -1.908145894792    3.396301480912   -3.613122335706
 O   -2.167472817030    1.967203144935   -1.331688026690
 C   -5.196754687582    3.180166131003   -1.658503804452
 H   -6.151490003008    2.770782504229   -2.018242560366
 H   -4.862820150994    2.588722767623   -0.793900575458
 H   -5.350207318958    4.224226450594   -1.342902044983
 C   -2.895663261827    5.712671110512   -2.017959704740
 H   -2.886100146280    6.514038090118   -1.266021799513
 H   -2.113180120680    5.884142928485   -2.772659561877
 H   -3.870686877102    5.673956426010   -2.532174701565
