27

 P    2.767742367650   -3.307001499424    2.427005896675
 O    2.063942367650   -3.582461499424    3.749735896675
 O    2.323272367650   -2.153361499424    1.468305896675
 O    4.409452367650   -3.278461499424    2.864435896675
 O    2.815402367650   -4.674761499424    1.440105896675
 C    5.352552367650   -3.366321499424    1.795125896675
 H    6.307292367650   -2.956941499424    2.154865896675
 H    5.018622367650   -2.774881499424    0.930515896675
 H    5.506012367650   -4.410381499424    1.479525896675
 C    3.051462367650   -5.898821499424    2.154575896675
 H    3.041902367650   -6.700191499424    1.402635896675
 H    2.268982367650   -6.070291499424    2.909275896675
 H    4.026482367650   -5.860111499424    2.668795896675
CS   -0.040237632350    0.048078500576   -0.035284103325
 P   -2.724957110078    3.255882197660   -2.389488165611
 O   -4.366670730981    3.227338472648   -2.826917286275
 O   -2.772618279448    4.623643801056   -1.402588147721
 O   -2.021163912905    3.531339655047   -3.712226722424
 O   -2.280490835142    2.102241319070   -1.430792413408
 C   -5.309772705694    3.315204305139   -1.757608191170
 H   -6.264508021120    2.905820678364   -2.117346947084
 H   -4.975838169106    2.723760941758   -0.893004962176
 H   -5.463225337070    4.359264624729   -1.442006431702
 C   -3.008681279939    5.847709284647   -2.117064091458
 H   -2.999118164393    6.649076264254   -1.365126186231
 H   -2.226198138793    6.019181102620   -2.871763948596
 H   -3.983704895214    5.808994600145   -2.631279088283
