27

 P    2.822519316896   -3.372451056356    2.475039263849
 O    2.118719316896   -3.647911056356    3.797769263849
 O    2.378049316896   -2.218811056356    1.516339263849
 O    4.464229316896   -3.343911056356    2.912469263849
 O    2.870179316896   -4.740211056356    1.488139263849
 C    5.407329316896   -3.431771056356    1.843159263849
 H    6.362069316896   -3.022391056356    2.202899263849
 H    5.073399316896   -2.840331056356    0.978549263849
 H    5.560789316896   -4.475831056356    1.527559263849
 C    3.106239316896   -5.964271056356    2.202609263849
 H    3.096679316896   -6.765641056356    1.450669263849
 H    2.323759316896   -6.135741056356    2.957309263849
 H    4.081259316896   -5.925561056356    2.716829263849
CS    0.014539316896   -0.017371056356    0.012749263849
 P   -2.837975128191    3.390920371795   -2.488592552329
 O   -4.479688749093    3.362376646783   -2.926021672993
 O   -2.885636297561    4.758681975191   -1.501692534439
 O   -2.134181931017    3.666377829183   -3.811331109143
 O   -2.393508853254    2.237279493205   -1.529896800127
 C   -5.422790723806    3.450242479274   -1.856712577889
 H   -6.377526039233    3.040858852499   -2.216451333803
 H   -5.088856187218    2.858799115893   -0.992109348895
 H   -5.576243355182    4.494302798865   -1.541110818420
 C   -3.121699298051    5.982747458782   -2.216168478177
 H   -3.112136182505    6.784114438389   -1.464230572950
 H   -2.339216156905    6.154219276755   -2.970868335314
 H   -4.096722913326    5.944032774281   -2.730383475002
