27

 P    2.859037283060   -3.416084094311    2.507061508632
 O    2.155237283060   -3.691544094311    3.829791508632
 O    2.414567283060   -2.262444094311    1.548361508632
 O    4.500747283060   -3.387544094311    2.944491508632
 O    2.906697283060   -4.783844094311    1.520161508632
 C    5.443847283060   -3.475404094311    1.875181508632
 H    6.398587283060   -3.066024094311    2.234921508632
 H    5.109917283060   -2.883964094311    1.010571508632
 H    5.597307283060   -4.519464094311    1.559581508632
 C    3.142757283060   -6.007904094311    2.234631508632
 H    3.133197283060   -6.809274094311    1.482691508632
 H    2.360277283060   -6.179374094311    2.989331508632
 H    4.117777283060   -5.969194094311    2.748851508632
CS    0.051057283060   -0.061004094311    0.044771508632
 P   -2.913320473599    3.480945821219   -2.554662143475
 O   -4.555034094502    3.452402096207   -2.992091264139
 O   -2.960981642969    4.848707424614   -1.567762125585
 O   -2.209527276425    3.756403278606   -3.877400700289
 O   -2.468854198663    2.327304942629   -1.595966391273
 C   -5.498136069215    3.540267928697   -1.922782169034
 H   -6.452871384641    3.130884301923   -2.282520924948
 H   -5.164201532627    2.948824565317   -1.058178940040
 H   -5.651588700590    4.584328248288   -1.607180409566
 C   -3.197044643459    6.072772908206   -2.282238069323
 H   -3.187481527913    6.874139887812   -1.530300164096
 H   -2.414561502313    6.244244726179   -3.036937926460
 H   -4.172068258735    6.034058223704   -2.796453066147
