27

 P    2.895555249224   -3.459717132266    2.539083753415
 O    2.191755249224   -3.735177132266    3.861813753415
 O    2.451085249224   -2.306077132266    1.580383753415
 O    4.537265249224   -3.431177132266    2.976513753415
 O    2.943215249224   -4.827477132266    1.552183753415
 C    5.480365249224   -3.519037132266    1.907203753415
 H    6.435105249224   -3.109657132266    2.266943753415
 H    5.146435249224   -2.927597132266    1.042593753415
 H    5.633825249224   -4.563097132266    1.591603753415
 C    3.179275249224   -6.051537132266    2.266653753415
 H    3.169715249224   -6.852907132266    1.514713753415
 H    2.396795249224   -6.223007132266    3.021353753415
 H    4.154295249224   -6.012827132266    2.780873753415
CS    0.087575249224   -0.104637132266    0.076793753415
 P   -2.988665819007    3.570971270642   -2.620731734620
 O   -4.630379439910    3.542427545630   -3.058160855284
 O   -3.036326988377    4.938732874038   -1.633831716731
 O   -2.284872621834    3.846428728030   -3.943470291434
 O   -2.544199544071    2.417330392052   -1.662035982418
 C   -5.573481414623    3.630293378121   -1.988851760180
 H   -6.528216730049    3.220909751346   -2.348590516094
 H   -5.239546878035    3.038850014740   -1.124248531186
 H   -5.726934045999    4.674353697712   -1.673250000712
 C   -3.272389988868    6.162798357629   -2.348307660468
 H   -3.262826873321    6.964165337236   -1.596369755241
 H   -2.489906847722    6.334270175602   -3.103007517606
 H   -4.247413604143    6.124083673128   -2.862522657293
