27

 P    2.913814232305   -3.481533651244    2.555094875806
 O    2.210014232305   -3.756993651244    3.877824875806
 O    2.469344232305   -2.327893651244    1.596394875806
 O    4.555524232305   -3.452993651244    2.992524875806
 O    2.961474232305   -4.849293651244    1.568194875806
 C    5.498624232305   -3.540853651244    1.923214875806
 H    6.453364232305   -3.131473651244    2.282954875806
 H    5.164694232305   -2.949413651244    1.058604875806
 H    5.652084232305   -4.584913651244    1.607614875806
 C    3.197534232305   -6.073353651244    2.282664875806
 H    3.187974232305   -6.874723651244    1.530724875806
 H    2.415054232305   -6.244823651244    3.037364875806
 H    4.172554232305   -6.034643651244    2.796884875806
CS    0.105834232305   -0.126453651244    0.092804875806
 P   -3.026338491711    3.615983995354   -2.653766530193
 O   -4.668052112614    3.587440270342   -3.091195650857
 O   -3.073999661081    4.983745598750   -1.666866512303
 O   -2.322545294538    3.891441452741   -3.976505087007
 O   -2.581872216775    2.462343116764   -1.695070777991
 C   -5.611154087327    3.675306102832   -2.021886555753
 H   -6.565889402753    3.265922476058   -2.381625311667
 H   -5.277219550739    3.083862739452   -1.157283326759
 H   -5.764606718703    4.719366422423   -1.706284796284
 C   -3.310062661572    6.207811082341   -2.381342456041
 H   -3.300499546025    7.009178061948   -1.629404550814
 H   -2.527579520426    6.379282900314   -3.136042313178
 H   -4.285086276847    6.169096397839   -2.895557452866
