27

 P    2.932073215387   -3.503350170221    2.571105998198
 O    2.228273215387   -3.778810170221    3.893835998198
 O    2.487603215387   -2.349710170221    1.612405998198
 O    4.573783215387   -3.474810170221    3.008535998198
 O    2.979733215387   -4.871110170221    1.584205998198
 C    5.516883215387   -3.562670170221    1.939225998198
 H    6.471623215387   -3.153290170221    2.298965998198
 H    5.182953215387   -2.971230170221    1.074615998198
 H    5.670343215387   -4.606730170221    1.623625998198
 C    3.215793215387   -6.095170170221    2.298675998198
 H    3.206233215387   -6.896540170221    1.546735998198
 H    2.433313215387   -6.266640170221    3.053375998198
 H    4.190813215387   -6.056460170221    2.812895998198
CS    0.124093215387   -0.148270170221    0.108815998198
 P   -3.064011164415    3.660996720066   -2.686801325766
 O   -4.705724785318    3.632452995054   -3.124230446430
 O   -3.111672333785    5.028758323461   -1.699901307876
 O   -2.360217967242    3.936454177453   -4.009539882580
 O   -2.619544889479    2.507355841476   -1.728105573564
 C   -5.648826760031    3.720318827544   -2.054921351326
 H   -6.603562075457    3.310935200770   -2.414660107240
 H   -5.314892223443    3.128875464163   -1.190318122332
 H   -5.802279391407    4.764379147135   -1.739319591857
 C   -3.347735334276    6.252823807053   -2.414377251614
 H   -3.338172218730    7.054190786659   -1.662439346387
 H   -2.565252193130    6.424295625026   -3.169077108751
 H   -4.322758949551    6.214109122551   -2.928592248439
