27

 P    2.950332198469   -3.525166689199    2.587117120589
 O    2.246532198469   -3.800626689199    3.909847120589
 O    2.505862198469   -2.371526689199    1.628417120589
 O    4.592042198469   -3.496626689199    3.024547120589
 O    2.997992198469   -4.892926689199    1.600217120589
 C    5.535142198469   -3.584486689199    1.955237120589
 H    6.489882198469   -3.175106689199    2.314977120589
 H    5.201212198469   -2.993046689199    1.090627120589
 H    5.688602198469   -4.628546689199    1.639637120589
 C    3.234052198469   -6.116986689199    2.314687120589
 H    3.224492198469   -6.918356689199    1.562747120589
 H    2.451572198469   -6.288456689199    3.069387120589
 H    4.209072198469   -6.078276689199    2.828907120589
CS    0.142352198469   -0.170086689199    0.124827120589
 P   -3.101683837119    3.706009444778   -2.719836121339
 O   -4.743397458022    3.677465719766   -3.157265242003
 O   -3.149345006489    5.073771048173   -1.732936103449
 O   -2.397890639946    3.981466902165   -4.042574678153
 O   -2.657217562183    2.552368566188   -1.761140369137
 C   -5.686499432735    3.765331552256   -2.087956146898
 H   -6.641234748162    3.355947925481   -2.447694902812
 H   -5.352564896147    3.173888188875   -1.223352917905
 H   -5.839952064111    4.809391871847   -1.772354387430
 C   -3.385408006980    6.297836531764   -2.447412047187
 H   -3.375844891434    7.099203511371   -1.695474141960
 H   -2.602924865834    6.469308349737   -3.202111904324
 H   -4.360431622255    6.259121847263   -2.961627044011
