27

 P    2.968591181551   -3.546983208176    2.603128242981
 O    2.264791181551   -3.822443208176    3.925858242981
 O    2.524121181551   -2.393343208176    1.644428242981
 O    4.610301181551   -3.518443208176    3.040558242981
 O    3.016251181551   -4.914743208176    1.616228242981
 C    5.553401181551   -3.606303208176    1.971248242981
 H    6.508141181551   -3.196923208176    2.330988242981
 H    5.219471181551   -3.014863208176    1.106638242981
 H    5.706861181551   -4.650363208176    1.655648242981
 C    3.252311181551   -6.138803208176    2.330698242981
 H    3.242751181551   -6.940173208176    1.578758242981
 H    2.469831181551   -6.310273208176    3.085398242981
 H    4.227331181551   -6.100093208176    2.844918242981
CS    0.160611181551   -0.191903208176    0.140838242981
 P   -3.139356509823    3.751022169489   -2.752870916912
 O   -4.781070130726    3.722478444477   -3.190300037576
 O   -3.187017679193    5.118783772885   -1.765970899022
 O   -2.435563312650    4.026479626877   -4.075609473726
 O   -2.694890234887    2.597381290899   -1.794175164710
 C   -5.724172105439    3.810344276968   -2.120990942471
 H   -6.678907420866    3.400960650193   -2.480729698385
 H   -5.390237568851    3.218900913587   -1.256387713477
 H   -5.877624736815    4.854404596559   -1.805389183003
 C   -3.423080679684    6.342849256476   -2.480446842760
 H   -3.413517564138    7.144216236083   -1.728508937533
 H   -2.640597538538    6.514321074449   -3.235146699897
 H   -4.398104294959    6.304134571975   -2.994661839584
