27

 P    3.005109147715   -3.590616246131    2.635150487764
 O    2.301309147715   -3.866076246131    3.957880487764
 O    2.560639147715   -2.436976246131    1.676450487764
 O    4.646819147715   -3.562076246131    3.072580487764
 O    3.052769147715   -4.958376246131    1.648250487764
 C    5.589919147715   -3.649936246131    2.003270487764
 H    6.544659147715   -3.240556246131    2.363010487764
 H    5.255989147715   -3.058496246131    1.138660487764
 H    5.743379147715   -4.693996246131    1.687670487764
 C    3.288829147715   -6.182436246131    2.362720487764
 H    3.279269147715   -6.983806246131    1.610780487764
 H    2.506349147715   -6.353906246131    3.117420487764
 H    4.263849147715   -6.143726246131    2.876940487764
CS    0.197129147715   -0.235536246131    0.172860487764
 P   -3.214701855232    3.841047618913   -2.818940508057
 O   -4.856415476134    3.812503893901   -3.256369628721
 O   -3.262363024602    5.208809222308   -1.832040490167
 O   -2.510908658058    4.116505076300   -4.141679064871
 O   -2.770235580295    2.687406740323   -1.860244755855
 C   -5.799517450847    3.900369726391   -2.187060533617
 H   -6.754252766274    3.490986099617   -2.546799289531
 H   -5.465582914259    3.308926363010   -1.322457304623
 H   -5.952970082223    4.944430045982   -1.871458774148
 C   -3.498426025092    6.432874705900   -2.546516433905
 H   -3.488862909546    7.234241685506   -1.794578528678
 H   -2.715942883946    6.604346523873   -3.301216291043
 H   -4.473449640368    6.394160021398   -3.060731430730
