27

 P    3.041627113879   -3.634249284086    2.667172732546
 O    2.337827113879   -3.909709284086    3.989902732546
 O    2.597157113879   -2.480609284086    1.708472732546
 O    4.683337113879   -3.605709284086    3.104602732546
 O    3.089287113879   -5.002009284086    1.680272732546
 C    5.626437113879   -3.693569284086    2.035292732546
 H    6.581177113879   -3.284189284086    2.395032732546
 H    5.292507113879   -3.102129284086    1.170682732546
 H    5.779897113879   -4.737629284086    1.719692732546
 C    3.325347113879   -6.226069284086    2.394742732546
 H    3.315787113879   -7.027439284086    1.642802732546
 H    2.542867113879   -6.397539284086    3.149442732546
 H    4.300367113879   -6.187359284086    2.908962732546
CS    0.233647113879   -0.279169284086    0.204882732546
 P   -3.290047200640    3.931073068336   -2.885010099203
 O   -4.931760821543    3.902529343324   -3.322439219867
 O   -3.337708370010    5.298834671732   -1.898110081313
 O   -2.586254003466    4.206530525724   -4.207748656017
 O   -2.845580925704    2.777432189746   -1.926314347001
 C   -5.874862796256    3.990395175815   -2.253130124763
 H   -6.829598111682    3.581011549040   -2.612868880677
 H   -5.540928259668    3.398951812434   -1.388526895769
 H   -6.028315427632    5.034455495406   -1.937528365294
 C   -3.573771370500    6.522900155323   -2.612586025051
 H   -3.564208254954    7.324267134930   -1.860648119824
 H   -2.791288229354    6.694371973296   -3.367285882188
 H   -4.548794985776    6.484185470822   -3.126801021875
