27

 P    3.059886096961   -3.656065803064    2.683183854938
 O    2.356086096961   -3.931525803064    4.005913854938
 O    2.615416096961   -2.502425803064    1.724483854938
 O    4.701596096961   -3.627525803064    3.120613854938
 O    3.107546096961   -5.023825803064    1.696283854938
 C    5.644696096961   -3.715385803064    2.051303854938
 H    6.599436096961   -3.306005803064    2.411043854938
 H    5.310766096961   -3.123945803064    1.186693854938
 H    5.798156096961   -4.759445803064    1.735703854938
 C    3.343606096961   -6.247885803064    2.410753854938
 H    3.334046096961   -7.049255803064    1.658813854938
 H    2.561126096961   -6.419355803064    3.165453854938
 H    4.318626096961   -6.209175803064    2.924973854938
CS    0.251906096961   -0.300985803064    0.220893854938
 P   -3.327719873344    3.976085793048   -2.918044894776
 O   -4.969433494247    3.947542068036   -3.355474015440
 O   -3.375381042714    5.343847396444   -1.931144876886
 O   -2.623926676170    4.251543250435   -4.240783451590
 O   -2.883253598408    2.822444914458   -1.959349142574
 C   -5.912535468960    4.035407900526   -2.286164920335
 H   -6.867270784386    3.626024273752   -2.645903676249
 H   -5.578600932372    3.443964537146   -1.421561691342
 H   -6.065988100336    5.079468220117   -1.970563160867
 C   -3.611444043205    6.567912880035   -2.645620820624
 H   -3.601880927658    7.369279859641   -1.893682915397
 H   -2.828960902058    6.739384698008   -3.400320677761
 H   -4.586467658480    6.529198195533   -3.159835817448
