27

 P    3.078145080043   -3.677882322041    2.699194977329
 O    2.374345080043   -3.953342322041    4.021924977329
 O    2.633675080043   -2.524242322041    1.740494977329
 O    4.719855080043   -3.649342322041    3.136624977329
 O    3.125805080043   -5.045642322041    1.712294977329
 C    5.662955080043   -3.737202322041    2.067314977329
 H    6.617695080043   -3.327822322041    2.427054977329
 H    5.329025080043   -3.145762322041    1.202704977329
 H    5.816415080043   -4.781262322041    1.751714977329
 C    3.361865080043   -6.269702322041    2.426764977329
 H    3.352305080043   -7.071072322041    1.674824977329
 H    2.579385080043   -6.441172322041    3.181464977329
 H    4.336885080043   -6.230992322041    2.940984977329
CS    0.270165080043   -0.322802322041    0.236904977329
 P   -3.365392546048    4.021098517760   -2.951079690349
 O   -5.007106166951    3.992554792748   -3.388508811013
 O   -3.413053715418    5.388860121155   -1.964179672459
 O   -2.661599348875    4.296555975147   -4.273818247163
 O   -2.920926271112    2.867457639170   -1.992383938147
 C   -5.950208141664    4.080420625238   -2.319199715908
 H   -6.904943457090    3.671036998464   -2.678938471822
 H   -5.616273605076    3.488977261857   -1.454596486914
 H   -6.103660773040    5.124480944829   -2.003597956440
 C   -3.649116715909    6.612925604747   -2.678655616196
 H   -3.639553600362    7.414292584353   -1.926717710970
 H   -2.866633574763    6.784397422719   -3.433355473334
 H   -4.624140331184    6.574210920245   -3.192870613021
