27

 P    3.096404063124   -3.699698841019    2.715206099721
 O    2.392604063124   -3.975158841019    4.037936099721
 O    2.651934063124   -2.546058841019    1.756506099721
 O    4.738114063124   -3.671158841019    3.152636099721
 O    3.144064063124   -5.067458841019    1.728306099721
 C    5.681214063124   -3.759018841019    2.083326099721
 H    6.635954063124   -3.349638841019    2.443066099721
 H    5.347284063124   -3.167578841019    1.218716099721
 H    5.834674063124   -4.803078841019    1.767726099721
 C    3.380124063124   -6.291518841019    2.442776099721
 H    3.370564063124   -7.092888841019    1.690836099721
 H    2.597644063124   -6.462988841019    3.197476099721
 H    4.355144063124   -6.252808841019    2.956996099721
CS    0.288424063124   -0.344618841019    0.252916099721
 P   -3.403065218752    4.066111242471   -2.984114485922
 O   -5.044778839655    4.037567517460   -3.421543606586
 O   -3.450726388122    5.433872845867   -1.997214468032
 O   -2.699272021579    4.341568699859   -4.306853042735
 O   -2.958598943816    2.912470363882   -2.025418733719
 C   -5.987880814368    4.125433349950   -2.352234511481
 H   -6.942616129794    3.716049723175   -2.711973267395
 H   -5.653946277780    3.533989986569   -1.487631282487
 H   -6.141333445744    5.169493669541   -2.036632752013
 C   -3.686789388613    6.657938329458   -2.711690411769
 H   -3.677226273067    7.459305309065   -1.959752506542
 H   -2.904306247467    6.829410147431   -3.466390268907
 H   -4.661813003888    6.619223644957   -3.225905408594
