27

 P    3.114663046206   -3.721515359996    2.731217222112
 O    2.410863046206   -3.996975359996    4.053947222112
 O    2.670193046206   -2.567875359996    1.772517222112
 O    4.756373046206   -3.692975359996    3.168647222112
 O    3.162323046206   -5.089275359996    1.744317222112
 C    5.699473046206   -3.780835359996    2.099337222112
 H    6.654213046206   -3.371455359996    2.459077222112
 H    5.365543046206   -3.189395359996    1.234727222112
 H    5.852933046206   -4.824895359996    1.783737222112
 C    3.398383046206   -6.313335359996    2.458787222112
 H    3.388823046206   -7.114705359996    1.706847222112
 H    2.615903046206   -6.484805359996    3.213487222112
 H    4.373403046206   -6.274625359996    2.973007222112
CS    0.306683046206   -0.366435359996    0.268927222112
 P   -3.440737891456    4.111123967183   -3.017149281494
 O   -5.082451512359    4.082580242171   -3.454578402158
 O   -3.488399060826    5.478885570579   -2.030249263604
 O   -2.736944694283    4.386581424571   -4.339887838308
 O   -2.996271616520    2.957483088593   -2.058453529292
 C   -6.025553487072    4.170446074662   -2.385269307054
 H   -6.980288802498    3.761062447887   -2.745008062968
 H   -5.691618950484    3.579002711281   -1.520666078060
 H   -6.179006118448    5.214506394253   -2.069667547585
 C   -3.724462061317    6.702951054170   -2.744725207342
 H   -3.714898945771    7.504318033777   -1.992787302115
 H   -2.941978920171    6.874422872143   -3.499425064480
 H   -4.699485676592    6.664236369669   -3.258940204167
