27

 P    3.132922029288   -3.743331878974    2.747228344504
 O    2.429122029288   -4.018791878974    4.069958344504
 O    2.688452029288   -2.589691878974    1.788528344504
 O    4.774632029288   -3.714791878974    3.184658344504
 O    3.180582029288   -5.111091878974    1.760328344504
 C    5.717732029288   -3.802651878974    2.115348344504
 H    6.672472029288   -3.393271878974    2.475088344504
 H    5.383802029288   -3.211211878974    1.250738344504
 H    5.871192029288   -4.846711878974    1.799748344504
 C    3.416642029288   -6.335151878974    2.474798344504
 H    3.407082029288   -7.136521878974    1.722858344504
 H    2.634162029288   -6.506621878974    3.229498344504
 H    4.391662029288   -6.296441878974    2.989018344504
CS    0.324942029288   -0.388251878974    0.284938344504
 P   -3.478410564160    4.156136691895   -3.050184077067
 O   -5.120124185063    4.127592966883   -3.487613197731
 O   -3.526071733530    5.523898295291   -2.063284059177
 O   -2.774617366987    4.431594149282   -4.372922633881
 O   -3.033944289224    3.002495813305   -2.091488324865
 C   -6.063226159776    4.215458799373   -2.418304102627
 H   -7.017961475203    3.806075172599   -2.778042858541
 H   -5.729291623188    3.624015435993   -1.553700873633
 H   -6.216678791152    5.259519118964   -2.102702343158
 C   -3.762134734021    6.747963778882   -2.777760002915
 H   -3.752571618475    7.549330758488   -2.025822097688
 H   -2.979651592875    6.919435596855   -3.532459860052
 H   -4.737158349296    6.709249094380   -3.291974999740
