27

 P    3.187698978534   -3.808781435906    2.795261711678
 O    2.483898978534   -4.084241435906    4.117991711678
 O    2.743228978534   -2.655141435906    1.836561711678
 O    4.829408978534   -3.780241435906    3.232691711678
 O    3.235358978534   -5.176541435906    1.808361711678
 C    5.772508978534   -3.868101435906    2.163381711678
 H    6.727248978534   -3.458721435906    2.523121711678
 H    5.438578978534   -3.276661435906    1.298771711678
 H    5.925968978534   -4.912161435906    1.847781711678
 C    3.471418978534   -6.400601435906    2.522831711678
 H    3.461858978534   -7.201971435906    1.770891711678
 H    2.688938978534   -6.572071435906    3.277531711678
 H    4.446438978534   -6.361891435906    3.037051711678
CS    0.379718978534   -0.453701435906    0.332971711678
 P   -3.591428582273    4.291174866030   -3.149288463786
 O   -5.233142203175    4.262631141018   -3.586717584450
 O   -3.639089751643    5.658936469426   -2.162388445896
 O   -2.887635385099    4.566632323418   -4.472027020600
 O   -3.146962307336    3.137533987440   -2.190592711583
 C   -6.176244177889    4.350496973509   -2.517408489345
 H   -7.130979493315    3.941113346734   -2.877147245259
 H   -5.842309641301    3.759053610128   -1.652805260351
 H   -6.329696809264    5.394557293100   -2.201806729877
 C   -3.875152752133    6.883001953017   -2.876864389633
 H   -3.865589636587    7.684368932624   -2.124926484406
 H   -3.092669610987    7.054473770990   -3.631564246771
 H   -4.850176367409    6.844287268515   -3.391079386458
