27

 P    3.224216944698   -3.852414473861    2.827283956461
 O    2.520416944698   -4.127874473861    4.150013956461
 O    2.779746944698   -2.698774473861    1.868583956461
 O    4.865926944698   -3.823874473861    3.264713956461
 O    3.271876944698   -5.220174473861    1.840383956461
 C    5.809026944698   -3.911734473861    2.195403956461
 H    6.763766944698   -3.502354473861    2.555143956461
 H    5.475096944698   -3.320294473861    1.330793956461
 H    5.962486944698   -4.955794473861    1.879803956461
 C    3.507936944698   -6.444234473861    2.554853956461
 H    3.498376944698   -7.245604473861    1.802913956461
 H    2.725456944698   -6.615704473861    3.309553956461
 H    4.482956944698   -6.405524473861    3.069073956461
CS    0.416236944698   -0.497334473861    0.364993956461
 P   -3.666773927681    4.381200315454   -3.215358054931
 O   -5.308487548584    4.352656590442   -3.652787175595
 O   -3.714435097051    5.748961918849   -2.228458037041
 O   -2.962980730507    4.656657772841   -4.538096611745
 O   -3.222307652745    3.227559436864   -2.256662302729
 C   -6.251589523297    4.440522422932   -2.583478080491
 H   -7.206324838723    4.031138796158   -2.943216836405
 H   -5.917654986709    3.849079059551   -1.718874851497
 H   -6.405042154673    5.484582742523   -2.267876321022
 C   -3.950498097541    6.973027402441   -2.942933980779
 H   -3.940934981995    7.774394382047   -2.190996075552
 H   -3.168014956395    7.144499220413   -3.697633837917
 H   -4.925521712817    6.934312717939   -3.457148977604
