27

 P    3.242475927780   -3.874230992839    2.843295078852
 O    2.538675927780   -4.149690992839    4.166025078852
 O    2.798005927780   -2.720590992839    1.884595078852
 O    4.884185927780   -3.845690992839    3.280725078852
 O    3.290135927780   -5.241990992839    1.856395078852
 C    5.827285927780   -3.933550992839    2.211415078852
 H    6.782025927780   -3.524170992839    2.571155078852
 H    5.493355927780   -3.342110992839    1.346805078852
 H    5.980745927780   -4.977610992839    1.895815078852
 C    3.526195927780   -6.466050992839    2.570865078852
 H    3.516635927780   -7.267420992839    1.818925078852
 H    2.743715927780   -6.637520992839    3.325565078852
 H    4.501215927780   -6.427340992839    3.085085078852
CS    0.434495927780   -0.519150992839    0.381005078852
 P   -3.704446600385    4.426213040165   -3.248392850504
 O   -5.346160221288    4.397669315154   -3.685821971168
 O   -3.752107769755    5.793974643561   -2.261492832614
 O   -3.000653403212    4.701670497553   -4.571131407318
 O   -3.259980325449    3.272572161576   -2.289697098302
 C   -6.289262196001    4.485535147644   -2.616512876064
 H   -7.243997511427    4.076151520869   -2.976251631978
 H   -5.955327659413    3.894091784263   -1.751909647070
 H   -6.442714827377    5.529595467235   -2.300911116595
 C   -3.988170770246    7.018040127152   -2.975968776352
 H   -3.978607654699    7.819407106759   -2.224030871125
 H   -3.205687629100    7.189511945125   -3.730668633489
 H   -4.963194385521    6.979325442651   -3.490183773177
