27

 P    3.278993893944   -3.917864030794    2.875317323635
 O    2.575193893944   -4.193324030794    4.198047323635
 O    2.834523893944   -2.764224030794    1.916617323635
 O    4.920703893944   -3.889324030794    3.312747323635
 O    3.326653893944   -5.285624030794    1.888417323635
 C    5.863803893944   -3.977184030794    2.243437323635
 H    6.818543893944   -3.567804030794    2.603177323635
 H    5.529873893944   -3.385744030794    1.378827323635
 H    6.017263893944   -5.021244030794    1.927837323635
 C    3.562713893944   -6.509684030794    2.602887323635
 H    3.553153893944   -7.311054030794    1.850947323635
 H    2.780233893944   -6.681154030794    3.357587323635
 H    4.537733893944   -6.470974030794    3.117107323635
CS    0.471013893944   -0.562784030794    0.413027323635
 P   -3.779791945793    4.516238489589   -3.314462441650
 O   -5.421505566696    4.487694764577   -3.751891562314
 O   -3.827453115163    5.884000092984   -2.327562423760
 O   -3.075998748620    4.791695946976   -4.637200998464
 O   -3.335325670857    3.362597610999   -2.355766689448
 C   -6.364607541409    4.575560597067   -2.682582467209
 H   -7.319342856835    4.166176970293   -3.042321223123
 H   -6.030673004821    3.984117233687   -1.817979238216
 H   -6.518060172785    5.619620916658   -2.366980707741
 C   -4.063516115654    7.108065576576   -3.042038367498
 H   -4.053953000108    7.909432556182   -2.290100462271
 H   -3.281032974508    7.279537394549   -3.796738224635
 H   -5.038539730929    7.069350892074   -3.556253364322
