27

 P    3.370288809353   -4.026946625681    2.955372935593
 O    2.666488809353   -4.302406625681    4.278102935593
 O    2.925818809353   -2.873306625681    1.996672935593
 O    5.011998809353   -3.998406625681    3.392802935593
 O    3.417948809353   -5.394706625681    1.968472935593
 C    5.955098809353   -4.086266625681    2.323492935593
 H    6.909838809353   -3.676886625681    2.683232935593
 H    5.621168809353   -3.494826625681    1.458882935593
 H    6.108558809353   -5.130326625681    2.007892935593
 C    3.654008809353   -6.618766625681    2.682942935593
 H    3.644448809353   -7.420136625681    1.931002935593
 H    2.871528809353   -6.790236625681    3.437642935593
 H    4.629028809353   -6.580056625681    3.197162935593
CS    0.562308809353   -0.671866625681    0.493082935593
 P   -3.968155309314    4.741302113148   -3.479636419514
 O   -5.609868930216    4.712758388136   -3.917065540178
 O   -4.015816478684    6.109063716543   -2.492736401624
 O   -3.264362112140    5.016759570535   -4.802374976328
 O   -3.523689034377    3.587661234558   -2.520940667312
 C   -6.552970904930    4.800624220626   -2.847756445074
 H   -7.507706220356    4.391240593852   -3.207495200988
 H   -6.219036368342    4.209180857245   -1.983153216080
 H   -6.706423536305    5.844684540217   -2.532154685605
 C   -4.251879479174    7.333129200135   -3.207212345362
 H   -4.242316363628    8.134496179741   -2.455274440135
 H   -3.469396338028    7.504601018107   -3.961912202499
 H   -5.226903094450    7.294414515633   -3.721427342186
