27

 P    3.443324741681   -4.114212701591    3.019417425158
 O    2.739524741681   -4.389672701591    4.342147425158
 O    2.998854741681   -2.960572701591    2.060717425158
 O    5.085034741681   -4.085672701591    3.456847425158
 O    3.490984741681   -5.481972701591    2.032517425158
 C    6.028134741681   -4.173532701591    2.387537425158
 H    6.982874741681   -3.764152701591    2.747277425158
 H    5.694204741681   -3.582092701591    1.522927425158
 H    6.181594741681   -5.217592701591    2.071937425158
 C    3.727044741681   -6.706032701591    2.746987425158
 H    3.717484741681   -7.507402701591    1.995047425158
 H    2.944564741681   -6.877502701591    3.501687425158
 H    4.702064741681   -6.667322701591    3.261207425158
CS    0.635344741681   -0.759132701591    0.557127425158
 P   -4.118846000130    4.921353011995   -3.611775601805
 O   -5.760559621033    4.892809286983   -4.049204722469
 O   -4.166507169500    6.289114615390   -2.624875583915
 O   -3.415052802957    5.196810469382   -4.934514158619
 O   -3.674379725194    3.767712133405   -2.653079849603
 C   -6.703661595746    4.980675119473   -2.979895627365
 H   -7.658396911172    4.571291492698   -3.339634383279
 H   -6.369727059158    4.389231756092   -2.115292398371
 H   -6.857114227122    6.024735439064   -2.664293867896
 C   -4.402570169991    7.513180098981   -3.339351527653
 H   -4.393007054445    8.314547078588   -2.587413622426
 H   -3.620087028845    7.684651916954   -4.094051384790
 H   -5.377593785266    7.474465414480   -3.853566524478
