27

 P    3.479842707845   -4.157845739546    3.051439669941
 O    2.776042707845   -4.433305739546    4.374169669941
 O    3.035372707845   -3.004205739546    2.092739669941
 O    5.121552707845   -4.129305739546    3.488869669941
 O    3.527502707845   -5.525605739546    2.064539669941
 C    6.064652707845   -4.217165739546    2.419559669941
 H    7.019392707845   -3.807785739546    2.779299669941
 H    5.730722707845   -3.625725739546    1.554949669941
 H    6.218112707845   -5.261225739546    2.103959669941
 C    3.763562707845   -6.749665739546    2.779009669941
 H    3.754002707845   -7.551035739546    2.027069669941
 H    2.981082707845   -6.921135739546    3.533709669941
 H    4.738582707845   -6.710955739546    3.293229669941
CS    0.671862707845   -0.802765739546    0.589149669941
 P   -4.194191345538    5.011378461418   -3.677845192951
 O   -5.835904966441    4.982834736406   -4.115274313615
 O   -4.241852514908    6.379140064814   -2.690945175061
 O   -3.490398148365    5.286835918806   -5.000583749765
 O   -3.749725070602    3.857737582828   -2.719149440749
 C   -6.779006941154    5.070700568897   -3.045965218510
 H   -7.733742256581    4.661316942122   -3.405703974425
 H   -6.445072404566    4.479257205516   -2.181361989517
 H   -6.932459572530    6.114760888487   -2.730363459042
 C   -4.477915515399    7.603205548405   -3.405421118799
 H   -4.468352399853    8.404572528012   -2.653483213572
 H   -3.695432374253    7.774677366378   -4.160120975936
 H   -5.452939130674    7.564490863903   -3.919636115623
