27

 P    3.498101690926   -4.179662258524    3.067450792333
 O    2.794301690926   -4.455122258524    4.390180792333
 O    3.053631690926   -3.026022258524    2.108750792333
 O    5.139811690926   -4.151122258524    3.504880792333
 O    3.545761690926   -5.547422258524    2.080550792333
 C    6.082911690926   -4.238982258524    2.435570792333
 H    7.037651690926   -3.829602258524    2.795310792333
 H    5.748981690926   -3.647542258524    1.570960792333
 H    6.236371690926   -5.283042258524    2.119970792333
 C    3.781821690926   -6.771482258524    2.795020792333
 H    3.772261690926   -7.572852258524    2.043080792333
 H    2.999341690926   -6.942952258524    3.549720792333
 H    4.756841690926   -6.732772258524    3.309240792333
CS    0.690121690926   -0.824582258524    0.605160792333
 P   -4.231864018242    5.056391186130   -3.710879988524
 O   -5.873577639145    5.027847461118   -4.148309109188
 O   -4.279525187613    6.424152789525   -2.723979970634
 O   -3.528070821069    5.331848643517   -5.033618545338
 O   -3.787397743306    3.902750307540   -2.752184236322
 C   -6.816679613858    5.115713293608   -3.079000014083
 H   -7.771414929285    4.706329666834   -3.438738769997
 H   -6.482745077270    4.524269930228   -2.214396785089
 H   -6.970132245234    6.159773613199   -2.763398254615
 C   -4.515588188103    7.648218273117   -3.438455914372
 H   -4.506025072557    8.449585252723   -2.686518009145
 H   -3.733105046957    7.819690091090   -4.193155771509
 H   -5.490611803378    7.609503588615   -3.952670911196
