27

 P    3.552878640172   -4.245111815456    3.115484159507
 O    2.849078640172   -4.520571815456    4.438214159507
 O    3.108408640172   -3.091471815456    2.156784159507
 O    5.194588640172   -4.216571815456    3.552914159507
 O    3.600538640172   -5.612871815456    2.128584159507
 C    6.137688640172   -4.304431815456    2.483604159507
 H    7.092428640172   -3.895051815456    2.843344159507
 H    5.803758640172   -3.712991815456    1.618994159507
 H    6.291148640172   -5.348491815456    2.168004159507
 C    3.836598640172   -6.836931815456    2.843054159507
 H    3.827038640172   -7.638301815456    2.091114159507
 H    3.054118640172   -7.008401815456    3.597754159507
 H    4.811618640172   -6.798221815456    3.357274159507
CS    0.744898640172   -0.890031815456    0.653194159507
 P   -4.344882036355    5.191429360265   -3.809984375242
 O   -5.986595657258    5.162885635253   -4.247413495906
 O   -4.392543205725    6.559190963661   -2.823084357352
 O   -3.641088839181    5.466886817653   -5.132722932056
 O   -3.900415761419    4.037788481675   -2.851288623040
 C   -6.929697631971    5.250751467744   -3.178104400802
 H   -7.884432947397    4.841367840969   -3.537843156716
 H   -6.595763095383    4.659308104363   -2.313501171808
 H   -7.083150263346    6.294811787334   -2.862502641333
 C   -4.628606206215    7.783256447252   -3.537560301090
 H   -4.619043090669    8.584623426859   -2.785622395863
 H   -3.846123065069    7.954728265225   -4.292260158227
 H   -5.603629821491    7.744541762750   -4.051775297915
