27

 P    3.571137623254   -4.266928334434    3.131495281899
 O    2.867337623254   -4.542388334434    4.454225281899
 O    3.126667623254   -3.113288334434    2.172795281899
 O    5.212847623254   -4.238388334434    3.568925281899
 O    3.618797623254   -5.634688334434    2.144595281899
 C    6.155947623254   -4.326248334434    2.499615281899
 H    7.110687623254   -3.916868334434    2.859355281899
 H    5.822017623254   -3.734808334434    1.635005281899
 H    6.309407623254   -5.370308334434    2.184015281899
 C    3.854857623254   -6.858748334434    2.859065281899
 H    3.845297623254   -7.660118334434    2.107125281899
 H    3.072377623254   -7.030218334434    3.613765281899
 H    4.829877623254   -6.820038334434    3.373285281899
CS    0.763157623254   -0.911848334434    0.669205281899
 P   -4.382554709059    5.236442084977   -3.843019170815
 O   -6.024268329962    5.207898359965   -4.280448291479
 O   -4.430215878429    6.604203688372   -2.856119152925
 O   -3.678761511885    5.511899542364   -5.165757727629
 O   -3.938088434123    4.082801206387   -2.884323418613
 C   -6.967370304675    5.295764192455   -3.211139196375
 H   -7.922105620101    4.886380565681   -3.570877952289
 H   -6.633435768087    4.704320829075   -2.346535967381
 H   -7.120822936051    6.339824512046   -2.895537436906
 C   -4.666278878919    7.828269171964   -3.570595096663
 H   -4.656715763373    8.629636151570   -2.818657191436
 H   -3.883795737773    7.999740989937   -4.325294953800
 H   -5.641302494195    7.789554487462   -4.084810093488
