27

 P    3.625914572500   -4.332377891366    3.179528649073
 O    2.922114572500   -4.607837891366    4.502258649073
 O    3.181444572500   -3.178737891366    2.220828649073
 O    5.267624572500   -4.303837891366    3.616958649073
 O    3.673574572500   -5.700137891366    2.192628649073
 C    6.210724572500   -4.391697891366    2.547648649073
 H    7.165464572500   -3.982317891366    2.907388649073
 H    5.876794572500   -3.800257891366    1.683038649073
 H    6.364184572500   -5.435757891366    2.232048649073
 C    3.909634572500   -6.924197891366    2.907098649073
 H    3.900074572500   -7.725567891366    2.155158649073
 H    3.127154572500   -7.095667891366    3.661798649073
 H    4.884654572500   -6.885487891366    3.421318649073
CS    0.817934572500   -0.977297891366    0.717238649073
 P   -4.495572727171    5.371480259112   -3.942123557534
 O   -6.137286348074    5.342936534100   -4.379552678198
 O   -4.543233896541    6.739241862508   -2.955223539644
 O   -3.791779529998    5.646937716500   -5.264862114347
 O   -4.051106452235    4.217839380522   -2.983427805331
 C   -7.080388322787    5.430802366591   -3.310243583093
 H   -8.035123638213    5.021418739816   -3.669982339007
 H   -6.746453786199    4.839359003210   -2.445640354099
 H   -7.233840954163    6.474862686181   -2.994641823625
 C   -4.779296897032    7.963307346099   -3.669699483381
 H   -4.769733781486    8.764674325706   -2.917761578154
 H   -3.996813755886    8.134779164072   -4.424399340519
 H   -5.754320512307    7.924592661597   -4.183914480206
