27

 P    3.680691521745   -4.397827448299    3.227562016247
 O    2.976891521745   -4.673287448299    4.550292016247
 O    3.236221521745   -3.244187448299    2.268862016247
 O    5.322401521745   -4.369287448299    3.664992016247
 O    3.728351521745   -5.765587448299    2.240662016247
 C    6.265501521745   -4.457147448299    2.595682016247
 H    7.220241521745   -4.047767448299    2.955422016247
 H    5.931571521745   -3.865707448299    1.731072016247
 H    6.418961521745   -5.501207448299    2.280082016247
 C    3.964411521745   -6.989647448299    2.955132016247
 H    3.954851521745   -7.791017448299    2.203192016247
 H    3.181931521745   -7.161117448299    3.709832016247
 H    4.939431521745   -6.950937448299    3.469352016247
CS    0.872711521745   -1.042747448299    0.765272016247
 P   -4.608590745284    5.506518433247   -4.041227944252
 O   -6.250304366186    5.477974708235   -4.478657064916
 O   -4.656251914654    6.874280036643   -3.054327926362
 O   -3.904797548110    5.781975890635   -5.363966501066
 O   -4.164124470347    4.352877554657   -3.082532192050
 C   -7.193406340899    5.565840540726   -3.409347969812
 H   -8.148141656326    5.156456913951   -3.769086725726
 H   -6.859471804311    4.974397177345   -2.544744740818
 H   -7.346858972275    6.609900860317   -3.093746210343
 C   -4.892314915144    8.098345520234   -3.768803870100
 H   -4.882751799598    8.899712499841   -3.016865964873
 H   -4.109831773998    8.269817338207   -4.523503727237
 H   -5.867338530419    8.059630835733   -4.283018866924
