27

 P    3.698950504827   -4.419643967276    3.243573138639
 O    2.995150504827   -4.695103967276    4.566303138639
 O    3.254480504827   -3.266003967276    2.284873138639
 O    5.340660504827   -4.391103967276    3.681003138639
 O    3.746610504827   -5.787403967276    2.256673138639
 C    6.283760504827   -4.478963967276    2.611693138639
 H    7.238500504827   -4.069583967276    2.971433138639
 H    5.949830504827   -3.887523967276    1.747083138639
 H    6.437220504827   -5.523023967276    2.296093138639
 C    3.982670504827   -7.011463967276    2.971143138639
 H    3.973110504827   -7.812833967276    2.219203138639
 H    3.200190504827   -7.182933967276    3.725843138639
 H    4.957690504827   -6.972753967276    3.485363138639
CS    0.890970504827   -1.064563967276    0.781283138639
 P   -4.646263417988    5.551531157959   -4.074262739825
 O   -6.287977038890    5.522987432947   -4.511691860489
 O   -4.693924587358    6.919292761355   -3.087362721935
 O   -3.942470220814    5.826988615347   -5.397001296639
 O   -4.201797143051    4.397890279369   -3.115566987623
 C   -7.231079013603    5.610853265438   -3.442382765384
 H   -8.185814329030    5.201469638663   -3.802121521298
 H   -6.897144477015    5.019409902057   -2.577779536391
 H   -7.384531644979    6.654913585028   -3.126781005916
 C   -4.929987587848    8.143358244946   -3.801838665673
 H   -4.920424472302    8.944725224553   -3.049900760446
 H   -4.147504446702    8.314830062919   -4.556538522810
 H   -5.905011203124    8.104643560444   -4.316053662497
