10

 C    0.479325502218    1.691637811984    0.000018681718
 H    0.872812502218    2.704766811984    0.000238681718
 C    1.091358502218    0.441529811984    0.000054681718
 H    2.157065502218    0.222802811984   -0.000039318282
 N   -0.875762497782    1.422669811984    0.000006681718
 H   -1.620696497782    2.109319811984    0.000260681718
 C   -1.033568497782    0.058629811984    0.000061681718
 H   -2.011192497782   -0.417386188016   -0.000064318282
 N    0.145347502218   -0.567965188016    0.000050681718
NA    0.190928010180   -1.867165860431   -0.000122777646
