10

 C    0.474897894269    1.817839811091    0.000035531247
 H    0.868384894269    2.830968811091    0.000255531247
 C    1.086930894269    0.567731811091    0.000071531247
 H    2.152637894269    0.349004811091   -0.000022468753
 N   -0.880190105731    1.548871811091    0.000023531247
 H   -1.625124105731    2.235521811091    0.000277531247
 C   -1.037996105731    0.184831811091    0.000078531247
 H   -2.015620105731   -0.291184188909   -0.000047468753
 N    0.140919894269   -0.441763188909    0.000067531247
NA    0.204031366831   -2.240656427639   -0.000172643258
