10

 C    0.474012372679    1.843080210912    0.000038901152
 H    0.867499372679    2.856209210912    0.000258901152
 C    1.086045372679    0.592972210912    0.000074901152
 H    2.151752372679    0.374245210912   -0.000019098848
 N   -0.881075627321    1.574112210912    0.000026901152
 H   -1.626009627321    2.260762210912    0.000280901152
 C   -1.038881627321    0.210072210912    0.000081901152
 H   -2.016505627321   -0.265943789088   -0.000044098848
 N    0.140034372679   -0.416522789088    0.000070901152
NA    0.206652038161   -2.315354541080   -0.000182616380
