10

 C    0.402285123899    3.887552596439    0.000311863511
 H    0.795772123899    4.900681596439    0.000531863511
 C    1.014318123899    2.637444596439    0.000347863511
 H    2.080025123899    2.418717596439    0.000253863511
 N   -0.952802876101    3.618584596439    0.000299863511
 H   -1.697736876101    4.305234596439    0.000553863511
 C   -1.110608876101    2.254544596439    0.000354863511
 H   -2.088232876101    1.778528596439    0.000228863511
 N    0.068307123899    1.627949596439    0.000343863511
NA    0.418926415911   -8.365901729837   -0.000990439290
