10

 C    0.472241329499    1.893561010555    0.000045640964
 H    0.865728329499    2.906690010555    0.000265640964
 C    1.084274329499    0.643453010555    0.000081640964
 H    2.149981329499    0.424726010555   -0.000012359036
 N   -0.882846670501    1.624593010555    0.000033640964
 H   -1.627780670501    2.311243010555    0.000287640964
 C   -1.040652670501    0.260553010555    0.000088640964
 H   -2.018276670501   -0.215462989445   -0.000037359036
 N    0.138263329499   -0.366041989445    0.000077640964
NA    0.211893380822   -2.464750767963   -0.000202562625
