10

 C    0.468699243140    1.994522609840    0.000059120586
 H    0.862186243140    3.007651609840    0.000279120586
 C    1.080732243140    0.744414609840    0.000095120586
 H    2.146439243140    0.525687609840    0.000001120586
 N   -0.886388756860    1.725554609840    0.000047120586
 H   -1.631322756860    2.412204609840    0.000301120586
 C   -1.044194756860    0.361514609840    0.000102120586
 H   -2.021818756860   -0.114501390160   -0.000023879414
 N    0.134721243140   -0.265080390160    0.000091120586
NA    0.222376066143   -2.763543221729   -0.000242455114
