10

 C    0.467813721550    2.019763009662    0.000062490492
 H    0.861300721550    3.032892009662    0.000282490492
 C    1.079846721550    0.769655009662    0.000098490492
 H    2.145553721550    0.550928009662    0.000004490492
 N   -0.887274278450    1.750795009662    0.000050490492
 H   -1.632208278450    2.437445009662    0.000304490492
 C   -1.045080278450    0.386755009662    0.000105490492
 H   -2.022704278450   -0.089260990338   -0.000020509508
 N    0.133835721550   -0.239839990338    0.000094490492
NA    0.224996737473   -2.838241335170   -0.000252428236
