10

 C    0.460729548831    2.221686208232    0.000089449737
 H    0.854216548831    3.234815208232    0.000309449737
 C    1.072762548831    0.971578208232    0.000125449737
 H    2.138469548831    0.752851208232    0.000031449737
 N   -0.894358451169    1.952718208232    0.000077449737
 H   -1.639292451169    2.639368208232    0.000331449737
 C   -1.052164451169    0.588678208232    0.000132449737
 H   -2.029788451169    0.112662208232    0.000006449737
 N    0.126751548831   -0.037916791768    0.000121449737
NA    0.245962108115   -3.435826242702   -0.000332213215
