10

 C    0.459844027241    2.246926608053    0.000092819643
 H    0.853331027241    3.260055608053    0.000312819643
 C    1.071877027241    0.996818608053    0.000128819643
 H    2.137584027241    0.778091608053    0.000034819643
 N   -0.895243972759    1.977958608053    0.000080819643
 H   -1.640177972759    2.664608608053    0.000334819643
 C   -1.053049972759    0.613918608053    0.000135819643
 H   -2.030673972759    0.137902608053    0.000009819643
 N    0.125866027241   -0.012676391947    0.000124819643
NA    0.248582779445   -3.510524356143   -0.000342186337
