10

 C    0.458072984061    2.297407407696    0.000099559454
 H    0.851559984061    3.310536407696    0.000319559454
 C    1.070105984061    1.047299407696    0.000135559454
 H    2.135812984061    0.828572407696    0.000041559454
 N   -0.897015015939    2.028439407696    0.000087559454
 H   -1.641949015939    2.715089407696    0.000341559454
 C   -1.054821015939    0.664399407696    0.000142559454
 H   -2.032445015939    0.188383407696    0.000016559454
 N    0.124094984061    0.037804407696    0.000131559454
NA    0.253824122106   -3.659920583026   -0.000362132582
