10

 C    0.452759854522    2.448849806624    0.000119778888
 H    0.846246854522    3.461978806624    0.000339778888
 C    1.064792854522    1.198741806624    0.000155778888
 H    2.130499854522    0.980014806624    0.000061778888
 N   -0.902328145478    2.179881806624    0.000107778888
 H   -1.647262145478    2.866531806624    0.000361778888
 C   -1.060134145478    0.815841806624    0.000162778888
 H   -2.037758145478    0.339825806624    0.000036778888
 N    0.118781854522    0.189246806624    0.000151778888
NA    0.269548150087   -4.108109263675   -0.000421971316
