10

 C    0.451874332932    2.474090206445    0.000123148794
 H    0.845361332932    3.487219206445    0.000343148794
 C    1.063907332932    1.223982206445    0.000159148794
 H    2.129614332932    1.005255206445    0.000065148794
 N   -0.903213667068    2.205122206445    0.000111148794
 H   -1.648147667068    2.891772206445    0.000365148794
 C   -1.061019667068    0.841082206445    0.000166148794
 H   -2.038643667068    0.365066206445    0.000040148794
 N    0.117896332932    0.214487206445    0.000155148794
NA    0.272168821418   -4.182807377116   -0.000431944438
