10

 C    0.444790160213    2.676013405016    0.000150108039
 H    0.838277160213    3.689142405016    0.000370108039
 C    1.056823160213    1.425905405016    0.000186108039
 H    2.122530160213    1.207178405016    0.000092108039
 N   -0.910297839787    2.407045405016    0.000138108039
 H   -1.655231839787    3.093695405016    0.000392108039
 C   -1.068103839787    1.043005405016    0.000193108039
 H   -2.045727839787    0.566989405016    0.000067108039
 N    0.110812160213    0.416410405016    0.000182108039
NA    0.293134192059   -4.780392284648   -0.000511729417
