10

 C    0.441248073853    2.776975004301    0.000163587662
 H    0.834735073853    3.790104004301    0.000383587662
 C    1.053281073853    1.526867004301    0.000199587662
 H    2.118988073853    1.308140004301    0.000105587662
 N   -0.913839926147    2.508007004301    0.000151587662
 H   -1.658773926147    3.194657004301    0.000405587662
 C   -1.071645926147    1.143967004301    0.000206587662
 H   -2.049269926147    0.667951004301    0.000080587662
 N    0.107270073853    0.517372004301    0.000195587662
NA    0.303616877380   -5.079184738414   -0.000551621907
