10

 C    0.438591509084    2.852696203765    0.000173697379
 H    0.832078509084    3.865825203765    0.000393697379
 C    1.050624509084    1.602588203765    0.000209697379
 H    2.116331509084    1.383861203765    0.000115697379
 N   -0.916496490916    2.583728203765    0.000161697379
 H   -1.661430490916    3.270378203765    0.000415697379
 C   -1.074302490916    1.219688203765    0.000216697379
 H   -2.051926490916    0.743672203765    0.000090697379
 N    0.104613509084    0.593093203765    0.000205697379
NA    0.311478891371   -5.303279078738   -0.000581541274
