10

 C    0.437705987494    2.877936603586    0.000177067284
 H    0.831192987494    3.891065603586    0.000397067284
 C    1.049738987494    1.627828603586    0.000213067284
 H    2.115445987494    1.409101603586    0.000119067284
 N   -0.917382012506    2.608968603586    0.000165067284
 H   -1.662316012506    3.295618603586    0.000419067284
 C   -1.075188012506    1.244928603586    0.000220067284
 H   -2.052812012506    0.768912603586    0.000094067284
 N    0.103727987494    0.618333603586    0.000209067284
NA    0.314099562701   -5.377977192179   -0.000591514396
