10

 C    0.431507336365    3.054619402335    0.000200656624
 H    0.824994336365    4.067748402335    0.000420656624
 C    1.043540336365    1.804511402335    0.000236656624
 H    2.109247336365    1.585784402335    0.000142656624
 N   -0.923580663635    2.785651402335    0.000188656624
 H   -1.668514663635    3.472301402335    0.000442656624
 C   -1.081386663635    1.421611402335    0.000243656624
 H   -2.059010663635    0.945595402335    0.000117656624
 N    0.097529336365    0.795016402335    0.000232656624
NA    0.332444262013   -5.900863986269   -0.000661326252
