10

 C    0.430621814775    3.079859802157    0.000204026530
 H    0.824108814775    4.092988802157    0.000424026530
 C    1.042654814775    1.829751802157    0.000240026530
 H    2.108361814775    1.611024802157    0.000146026530
 N   -0.924466185225    2.810891802157    0.000192026530
 H   -1.669400185225    3.497541802157    0.000446026530
 C   -1.082272185225    1.446851802157    0.000247026530
 H   -2.059896185225    0.970835802157    0.000121026530
 N    0.096643814775    0.820256802157    0.000236026530
NA    0.335064933343   -5.975562099711   -0.000671299375
