10

 C    0.427965250005    3.155581001621    0.000214136247
 H    0.821452250005    4.168710001621    0.000434136247
 C    1.039998250005    1.905473001621    0.000250136247
 H    2.105705250005    1.686746001621    0.000156136247
 N   -0.927122749995    2.886613001621    0.000202136247
 H   -1.672056749995    3.573263001621    0.000456136247
 C   -1.084928749995    1.522573001621    0.000257136247
 H   -2.062552749995    1.046557001621    0.000131136247
 N    0.093987250005    0.895978001621    0.000246136247
NA    0.342926947334   -6.199656440035   -0.000701218742
