10

 C    0.427079728415    3.180821401442    0.000217506152
 H    0.820566728415    4.193950401442    0.000437506152
 C    1.039112728415    1.930713401442    0.000253506152
 H    2.104819728415    1.711986401442    0.000159506152
 N   -0.928008271585    2.911853401442    0.000205506152
 H   -1.672942271585    3.598503401442    0.000459506152
 C   -1.085814271585    1.547813401442    0.000260506152
 H   -2.063438271585    1.071797401442    0.000134506152
 N    0.093101728415    0.921218401442    0.000249506152
NA    0.345547618664   -6.274354553477   -0.000711191864
