10

 C    0.426194206825    3.206061801263    0.000220876058
 H    0.819681206825    4.219190801263    0.000440876058
 C    1.038227206825    1.955953801263    0.000256876058
 H    2.103934206825    1.737226801263    0.000162876058
 N   -0.928893793175    2.937093801263    0.000208876058
 H   -1.673827793175    3.623743801263    0.000462876058
 C   -1.086699793175    1.573053801263    0.000263876058
 H   -2.064323793175    1.097037801263    0.000137876058
 N    0.092216206825    0.946458801263    0.000252876058
NA    0.348168289995   -6.349052666918   -0.000721164986
