10

 C    0.424423163646    3.256542600906    0.000227615869
 H    0.817910163646    4.269671600906    0.000447615869
 C    1.036456163646    2.006434600906    0.000263615869
 H    2.102163163646    1.787707600906    0.000169615869
 N   -0.930664836354    2.987574600906    0.000215615869
 H   -1.675598836354    3.674224600906    0.000469615869
 C   -1.088470836354    1.623534600906    0.000270615869
 H   -2.066094836354    1.147518600906    0.000144615869
 N    0.090445163646    0.996939600906    0.000259615869
NA    0.353409632655   -6.498448893801   -0.000741111231
