10

 C    0.423537642056    3.281783000727    0.000230985775
 H    0.817024642056    4.294912000727    0.000450985775
 C    1.035570642056    2.031675000727    0.000266985775
 H    2.101277642056    1.812948000727    0.000172985775
 N   -0.931550357944    3.012815000727    0.000218985775
 H   -1.676484357944    3.699465000727    0.000472985775
 C   -1.089356357944    1.648775000727    0.000273985775
 H   -2.066980357944    1.172759000727    0.000147985775
 N    0.089559642056    1.022180000727    0.000262985775
NA    0.356030303985   -6.573147007242   -0.000751084353
