10

 C    0.422652120466    3.307023400549    0.000234355681
 H    0.816139120466    4.320152400549    0.000454355681
 C    1.034685120466    2.056915400549    0.000270355681
 H    2.100392120466    1.838188400549    0.000176355681
 N   -0.932435879534    3.038055400549    0.000222355681
 H   -1.677369879534    3.724705400549    0.000476355681
 C   -1.090241879534    1.674015400549    0.000277355681
 H   -2.067865879534    1.197999400549    0.000151355681
 N    0.088674120466    1.047420400549    0.000266355681
NA    0.358650975316   -6.647845120684   -0.000761057476
