10

 C    0.418224512516    3.433225399655    0.000251205209
 H    0.811711512516    4.446354399655    0.000471205209
 C    1.030257512516    2.183117399655    0.000287205209
 H    2.095964512516    1.964390399655    0.000193205209
 N   -0.936863487484    3.164257399655    0.000239205209
 H   -1.681797487484    3.850907399655    0.000493205209
 C   -1.094669487484    1.800217399655    0.000294205209
 H   -2.072293487484    1.324201399655    0.000168205209
 N    0.084246512516    1.173622399655    0.000283205209
NA    0.371754331967   -7.021335687891   -0.000810923087
