10

 C    0.412025861387    3.609908198404    0.000274794548
 H    0.805512861387    4.623037198404    0.000494794548
 C    1.024058861387    2.359800198404    0.000310794548
 H    2.089765861387    2.141073198404    0.000216794548
 N   -0.943062138613    3.340940198404    0.000262794548
 H   -1.687996138613    4.027590198404    0.000516794548
 C   -1.100868138613    1.976900198404    0.000317794548
 H   -2.078492138613    1.500884198404    0.000191794548
 N    0.078047861387    1.350305198404    0.000306794548
NA    0.390099031279   -7.544222481981   -0.000880734944
