10

 C    0.410254818208    3.660388998047    0.000281534360
 H    0.803741818208    4.673517998047    0.000501534360
 C    1.022287818208    2.410280998047    0.000317534360
 H    2.087994818208    2.191553998047    0.000223534360
 N   -0.944833181792    3.391420998047    0.000269534360
 H   -1.689767181792    4.078070998047    0.000523534360
 C   -1.102639181792    2.027380998047    0.000324534360
 H   -2.080263181792    1.551364998047    0.000198534360
 N    0.076276818208    1.400785998047    0.000313534360
NA    0.395340373939   -7.693618708864   -0.000900681188
