10

 C    0.409369296618    3.685629397868    0.000284904265
 H    0.802856296618    4.698758397868    0.000504904265
 C    1.021402296618    2.435521397868    0.000320904265
 H    2.087109296618    2.216794397868    0.000226904265
 N   -0.945718703382    3.416661397868    0.000272904265
 H   -1.690652703382    4.103311397868    0.000526904265
 C   -1.103524703382    2.052621397868    0.000327904265
 H   -2.081148703382    1.576605397868    0.000201904265
 N    0.075391296618    1.426026397868    0.000316904265
NA    0.397961045269   -7.768316822305   -0.000910654311
