10

 C    0.407598253438    3.736110197511    0.000291644077
 H    0.801085253438    4.749239197511    0.000511644077
 C    1.019631253438    2.486002197511    0.000327644077
 H    2.085338253438    2.267275197511    0.000233644077
 N   -0.947489746562    3.467142197511    0.000279644077
 H   -1.692423746562    4.153792197511    0.000533644077
 C   -1.105295746562    2.103102197511    0.000334644077
 H   -2.082919746562    1.627086197511    0.000208644077
 N    0.073620253438    1.476507197511    0.000323644077
NA    0.403202387930   -7.917713049188   -0.000930600556
