10

 C    0.405827210258    3.786590997153    0.000298383888
 H    0.799314210258    4.799719997153    0.000518383888
 C    1.017860210258    2.536482997153    0.000334383888
 H    2.083567210258    2.317755997153    0.000240383888
 N   -0.949260789742    3.517622997153    0.000286383888
 H   -1.694194789742    4.204272997153    0.000540383888
 C   -1.107066789742    2.153582997153    0.000341383888
 H   -2.084690789742    1.677566997153    0.000215383888
 N    0.071849210258    1.526987997153    0.000330383888
NA    0.408443730590   -8.067109276071   -0.000950546800
