10

 C    0.404941688668    3.811831396975    0.000301753794
 H    0.798428688668    4.824960396975    0.000521753794
 C    1.016974688668    2.561723396975    0.000337753794
 H    2.082681688668    2.342996396975    0.000243753794
 N   -0.950146311332    3.542863396975    0.000289753794
 H   -1.695080311332    4.229513396975    0.000543753794
 C   -1.107952311332    2.178823396975    0.000344753794
 H   -2.085576311332    1.702807396975    0.000218753794
 N    0.070963688668    1.552228396975    0.000333753794
NA    0.411064401921   -8.141807389513   -0.000960519923
