10

 C    0.403170645488    3.862312196617    0.000308493605
 H    0.796657645488    4.875441196617    0.000528493605
 C    1.015203645488    2.612204196617    0.000344493605
 H    2.080910645488    2.393477196617    0.000250493605
 N   -0.951917354512    3.593344196617    0.000296493605
 H   -1.696851354512    4.279994196617    0.000550493605
 C   -1.109723354512    2.229304196617    0.000351493605
 H   -2.087347354512    1.753288196617    0.000225493605
 N    0.069192645488    1.602709196617    0.000340493605
NA    0.416305744581   -8.291203616396   -0.000980466167
