19

 C    0.949017543432   -4.467155803338    0.000000000000
 C   -0.319752456568   -3.643615803338    0.000000000000
 N   -1.475502456568   -4.358725803338    0.000000000000
 H   -2.352982456568   -3.856195803338    0.000000000000
 H   -1.507162456568   -5.368665803338    0.000000000000
 O   -0.349622456568   -2.395805803338    0.000000000000
 H    1.836687543432   -3.830655803338    0.000000000000
 H    0.965477543432   -5.119665803338    0.886820000000
 H    0.965477543432   -5.119665803338   -0.886820000000
RB    0.066397543432    0.455004196662    0.000000000000
 O    0.254118836575    1.741379225998    0.000000000000
 C    0.224256282227    2.989191943015    0.000000000000
 N    1.380010727079    3.704303454043    0.000000000000
 H    2.257486531422    3.201768451389    0.000000000000
 H    1.411676466198    4.714244038520    0.000000000000
 C   -1.044518559866    3.812738944996    0.000000000000
 H   -1.932190537147    3.176236073949    0.000000000000
 H   -1.060975911766    4.465247275420   -0.886819773796
 H   -1.060975911766    4.465247275420    0.886819773796
