19

 C    0.928018515840   -4.611053303093    0.000000000000
 C   -0.340751484160   -3.787513303093    0.000000000000
 N   -1.496501484160   -4.502623303093    0.000000000000
 H   -2.373981484160   -4.000093303093    0.000000000000
 H   -1.528161484160   -5.512563303093    0.000000000000
 O   -0.370621484160   -2.539703303093    0.000000000000
 H    1.815688515840   -3.974553303093    0.000000000000
 H    0.944478515840   -5.263563303093    0.886820000000
 H    0.944478515840   -5.263563303093   -0.886820000000
RB    0.045398515840    0.311106696907    0.000000000000
 O    0.305320306346    2.092241352911    0.000000000000
 C    0.275457751998    3.340054069928    0.000000000000
 N    1.431212196850    4.055165580956    0.000000000000
 H    2.308688001193    3.552630578302    0.000000000000
 H    1.462877935969    5.065106165433    0.000000000000
 C   -0.993317090095    4.163601071908    0.000000000000
 H   -1.880989067376    3.527098200861    0.000000000000
 H   -1.009774441995    4.816109402332   -0.886819773796
 H   -1.009774441995    4.816109402332    0.886819773796
