19

 C    0.583634463340   -6.970972299077    0.000000000000
 C   -0.685135536660   -6.147432299077    0.000000000000
 N   -1.840885536660   -6.862542299077    0.000000000000
 H   -2.718365536660   -6.360012299077    0.000000000000
 H   -1.872545536660   -7.872482299077    0.000000000000
 O   -0.715005536660   -4.899622299077    0.000000000000
 H    1.471304463340   -6.334472299077    0.000000000000
 H    0.600094463340   -7.623482299077    0.886820000000
 H    0.600094463340   -7.623482299077   -0.886820000000
RB   -0.298985536660   -2.048812299077    0.000000000000
 O    1.145024410593    7.846380234282    0.000000000000
 C    1.115161856245    9.094192951298    0.000000000000
 N    2.270916301096    9.809304462327    0.000000000000
 H    3.148392105440    9.306769459673    0.000000000000
 H    2.302582040216   10.819245046803    0.000000000000
 C   -0.153612985848    9.917739953279    0.000000000000
 H   -1.041284963129    9.281237082232    0.000000000000
 H   -0.170070337748   10.570248283703   -0.886819773796
 H   -0.170070337748   10.570248283703    0.886819773796
