19

 C    0.919618904804   -4.668612302995    0.000000000000
 C   -0.349151095196   -3.845072302995    0.000000000000
 N   -1.504901095196   -4.560182302995    0.000000000000
 H   -2.382381095196   -4.057652302995    0.000000000000
 H   -1.536561095196   -5.570122302995    0.000000000000
 O   -0.379021095196   -2.597262302995    0.000000000000
 H    1.807288904804   -4.032112302995    0.000000000000
 H    0.936078904804   -5.321122302995    0.886820000000
 H    0.936078904804   -5.321122302995   -0.886820000000
RB    0.036998904804    0.253547697005    0.000000000000
 O    0.325800894254    2.232586203676    0.000000000000
 C    0.295938339906    3.480398920693    0.000000000000
 N    1.451692784758    4.195510431721    0.000000000000
 H    2.329168589101    3.692975429067    0.000000000000
 H    1.483358523877    5.205451016198    0.000000000000
 C   -0.972836502187    4.303945922674    0.000000000000
 H   -1.860508479467    3.667443051627    0.000000000000
 H   -0.989293854086    4.956454253098   -0.886819773796
 H   -0.989293854086    4.956454253098    0.886819773796
