19

 C    0.915419099285   -4.697391802946    0.000000000000
 C   -0.353350900715   -3.873851802946    0.000000000000
 N   -1.509100900715   -4.588961802946    0.000000000000
 H   -2.386580900715   -4.086431802946    0.000000000000
 H   -1.540760900715   -5.598901802946    0.000000000000
 O   -0.383220900715   -2.626041802946    0.000000000000
 H    1.803089099285   -4.060891802946    0.000000000000
 H    0.931879099285   -5.349901802946    0.886820000000
 H    0.931879099285   -5.349901802946   -0.886820000000
RB    0.032799099285    0.224768197054    0.000000000000
 O    0.336041188208    2.302758629059    0.000000000000
 C    0.306178633861    3.550571346075    0.000000000000
 N    1.461933078712    4.265682857104    0.000000000000
 H    2.339408883056    3.763147854450    0.000000000000
 H    1.493598817832    5.275623441580    0.000000000000
 C   -0.962596208232    4.374118348056    0.000000000000
 H   -1.850268185513    3.737615477009    0.000000000000
 H   -0.979053560132    5.026626678480   -0.886819773796
 H   -0.979053560132    5.026626678480    0.886819773796
