19

 C    0.902819682730   -4.783730302800    0.000000000000
 C   -0.365950317270   -3.960190302800    0.000000000000
 N   -1.521700317270   -4.675300302800    0.000000000000
 H   -2.399180317270   -4.172770302800    0.000000000000
 H   -1.553360317270   -5.685240302800    0.000000000000
 O   -0.395820317270   -2.712380302800    0.000000000000
 H    1.790489682730   -4.147230302800    0.000000000000
 H    0.919279682730   -5.436240302800    0.886820000000
 H    0.919279682730   -5.436240302800   -0.886820000000
RB    0.020199682730    0.138429697200    0.000000000000
 O    0.366762070071    2.513275905207    0.000000000000
 C    0.336899515723    3.761088622223    0.000000000000
 N    1.492653960575    4.476200133252    0.000000000000
 H    2.370129764918    3.973665130598    0.000000000000
 H    1.524319699694    5.486140717728    0.000000000000
 C   -0.931875326370    4.584635624204    0.000000000000
 H   -1.819547303650    3.948132753157    0.000000000000
 H   -0.948332678269    5.237143954628   -0.886819773796
 H   -0.948332678269    5.237143954628    0.886819773796
