19

 C    0.898619877212   -4.812509802751    0.000000000000
 C   -0.370150122788   -3.988969802751    0.000000000000
 N   -1.525900122788   -4.704079802751    0.000000000000
 H   -2.403380122788   -4.201549802751    0.000000000000
 H   -1.557560122788   -5.714019802751    0.000000000000
 O   -0.400020122788   -2.741159802751    0.000000000000
 H    1.786289877212   -4.176009802751    0.000000000000
 H    0.915079877212   -5.465019802751    0.886820000000
 H    0.915079877212   -5.465019802751   -0.886820000000
RB    0.015999877212    0.109650197249    0.000000000000
 O    0.377002364025    2.583448330589    0.000000000000
 C    0.347139809678    3.831261047605    0.000000000000
 N    1.502894254529    4.546372558634    0.000000000000
 H    2.380370058872    4.043837555980    0.000000000000
 H    1.534559993649    5.556313143111    0.000000000000
 C   -0.921635032415    4.654808049586    0.000000000000
 H   -1.809307009696    4.018305178539    0.000000000000
 H   -0.938092384315    5.307316380010   -0.886819773796
 H   -0.938092384315    5.307316380010    0.886819773796
