19

 C    0.894420071694   -4.841289302702    0.000000000000
 C   -0.374349928306   -4.017749302702    0.000000000000
 N   -1.530099928306   -4.732859302702    0.000000000000
 H   -2.407579928306   -4.230329302702    0.000000000000
 H   -1.561759928306   -5.742799302702    0.000000000000
 O   -0.404219928306   -2.769939302702    0.000000000000
 H    1.782090071694   -4.204789302702    0.000000000000
 H    0.910880071694   -5.493799302702    0.886820000000
 H    0.910880071694   -5.493799302702   -0.886820000000
RB    0.011800071694    0.080870697298    0.000000000000
 O    0.387242657980    2.653620755972    0.000000000000
 C    0.357380103632    3.901433472988    0.000000000000
 N    1.513134548484    4.616544984017    0.000000000000
 H    2.390610352827    4.114009981363    0.000000000000
 H    1.544800287603    5.626485568493    0.000000000000
 C   -0.911394738461    4.724980474969    0.000000000000
 H   -1.799066715742    4.088477603922    0.000000000000
 H   -0.927852090361    5.377488805393   -0.886819773796
 H   -0.927852090361    5.377488805393    0.886819773796
