19

 C    0.860821627547   -5.071525302310    0.000000000000
 C   -0.407948372453   -4.247985302310    0.000000000000
 N   -1.563698372453   -4.963095302310    0.000000000000
 H   -2.441178372453   -4.460565302310    0.000000000000
 H   -1.595358372453   -5.973035302310    0.000000000000
 O   -0.437818372453   -3.000175302310    0.000000000000
 H    1.748491627547   -4.435025302310    0.000000000000
 H    0.877281627547   -5.724035302310    0.886820000000
 H    0.877281627547   -5.724035302310   -0.886820000000
RB   -0.021798372453   -0.149365302310    0.000000000000
 O    0.469165009613    3.215000159032    0.000000000000
 C    0.439302455266    4.462812876049    0.000000000000
 N    1.595056900117    5.177924387077    0.000000000000
 H    2.472532704460    4.675389384423    0.000000000000
 H    1.626722639237    6.187864971554    0.000000000000
 C   -0.829472386827    5.286359878029    0.000000000000
 H   -1.717144364108    4.649857006983    0.000000000000
 H   -0.845929738727    5.938868208454   -0.886819773796
 H   -0.845929738727    5.938868208454    0.886819773796
