19

 C    0.852422016511   -5.129084302212    0.000000000000
 C   -0.416347983489   -4.305544302212    0.000000000000
 N   -1.572097983489   -5.020654302212    0.000000000000
 H   -2.449577983489   -4.518124302212    0.000000000000
 H   -1.603757983489   -6.030594302212    0.000000000000
 O   -0.446217983489   -3.057734302212    0.000000000000
 H    1.740092016511   -4.492584302212    0.000000000000
 H    0.868882016511   -5.781594302212    0.886820000000
 H    0.868882016511   -5.781594302212   -0.886820000000
RB   -0.030197983489   -0.206924302212    0.000000000000
 O    0.489645597522    3.355345009797    0.000000000000
 C    0.459783043174    4.603157726814    0.000000000000
 N    1.615537488026    5.318269237842    0.000000000000
 H    2.493013292369    4.815734235188    0.000000000000
 H    1.647203227145    6.328209822319    0.000000000000
 C   -0.808991798919    5.426704728795    0.000000000000
 H   -1.696663776199    4.790201857748    0.000000000000
 H   -0.825449150818    6.079213059219   -0.886819773796
 H   -0.825449150818    6.079213059219    0.886819773796
