19

 C    0.848222210993   -5.157863802163    0.000000000000
 C   -0.420547789007   -4.334323802163    0.000000000000
 N   -1.576297789007   -5.049433802163    0.000000000000
 H   -2.453777789007   -4.546903802163    0.000000000000
 H   -1.607957789007   -6.059373802163    0.000000000000
 O   -0.450417789007   -3.086513802163    0.000000000000
 H    1.735892210993   -4.521363802163    0.000000000000
 H    0.864682210993   -5.810373802163    0.886820000000
 H    0.864682210993   -5.810373802163   -0.886820000000
RB   -0.034397789007   -0.235703802163    0.000000000000
 O    0.499885891476    3.425517435180    0.000000000000
 C    0.470023337128    4.673330152196    0.000000000000
 N    1.625777781980    5.388441663225    0.000000000000
 H    2.503253586323    4.885906660571    0.000000000000
 H    1.657443521099    6.398382247702    0.000000000000
 C   -0.798751504965    5.496877154177    0.000000000000
 H   -1.686423482245    4.860374283130    0.000000000000
 H   -0.815208856864    6.149385484601   -0.886819773796
 H   -0.815208856864    6.149385484601    0.886819773796
