19

 C    0.839822599956   -5.215422802065    0.000000000000
 C   -0.428947400044   -4.391882802065    0.000000000000
 N   -1.584697400044   -5.106992802065    0.000000000000
 H   -2.462177400044   -4.604462802065    0.000000000000
 H   -1.616357400044   -6.116932802065    0.000000000000
 O   -0.458817400044   -3.144072802065    0.000000000000
 H    1.727492599956   -4.578922802065    0.000000000000
 H    0.856282599956   -5.867932802065    0.886820000000
 H    0.856282599956   -5.867932802065   -0.886820000000
RB   -0.042797400044   -0.293262802065    0.000000000000
 O    0.520366479385    3.565862285945    0.000000000000
 C    0.490503925037    4.813675002961    0.000000000000
 N    1.646258369889    5.528786513990    0.000000000000
 H    2.523734174232    5.026251511336    0.000000000000
 H    1.677924109008    6.538727098467    0.000000000000
 C   -0.778270917056    5.637222004942    0.000000000000
 H   -1.665942894337    5.000719133895    0.000000000000
 H   -0.794728268956    6.289730335366   -0.886819773796
 H   -0.794728268956    6.289730335366    0.886819773796
