19

 C    0.835622794438   -5.244202302016    0.000000000000
 C   -0.433147205562   -4.420662302016    0.000000000000
 N   -1.588897205562   -5.135772302016    0.000000000000
 H   -2.466377205562   -4.633242302016    0.000000000000
 H   -1.620557205562   -6.145712302016    0.000000000000
 O   -0.463017205562   -3.172852302016    0.000000000000
 H    1.723292794438   -4.607702302016    0.000000000000
 H    0.852082794438   -5.896712302016    0.886820000000
 H    0.852082794438   -5.896712302016   -0.886820000000
RB   -0.046997205562   -0.322042302016    0.000000000000
 O    0.530606773339    3.636034711328    0.000000000000
 C    0.500744218991    4.883847428344    0.000000000000
 N    1.656498663843    5.598958939373    0.000000000000
 H    2.533974468186    5.096423936719    0.000000000000
 H    1.688164402962    6.608899523849    0.000000000000
 C   -0.768030623102    5.707394430325    0.000000000000
 H   -1.655702600383    5.070891559278    0.000000000000
 H   -0.784487975001    6.359902760749   -0.886819773796
 H   -0.784487975001    6.359902760749    0.886819773796
