19

 C    0.806224155810   -5.445658801673    0.000000000000
 C   -0.462545844190   -4.622118801673    0.000000000000
 N   -1.618295844190   -5.337228801673    0.000000000000
 H   -2.495775844190   -4.834698801673    0.000000000000
 H   -1.649955844190   -6.347168801673    0.000000000000
 O   -0.492415844190   -3.374308801673    0.000000000000
 H    1.693894155810   -4.809158801673    0.000000000000
 H    0.822684155810   -6.098168801673    0.886820000000
 H    0.822684155810   -6.098168801673   -0.886820000000
RB   -0.076395844190   -0.523498801673    0.000000000000
 O    0.602288831018    4.127241689006    0.000000000000
 C    0.572426276671    5.375054406022    0.000000000000
 N    1.728180721522    6.090165917051    0.000000000000
 H    2.605656525865    5.587630914397    0.000000000000
 H    1.759846460642    7.100106501527    0.000000000000
 C   -0.696348565422    6.198601408003    0.000000000000
 H   -1.584020542703    5.562098536956    0.000000000000
 H   -0.712805917322    6.851109738427   -0.886819773796
 H   -0.712805917322    6.851109738427    0.886819773796
