19

 C    0.793624739255   -5.531997301526    0.000000000000
 C   -0.475145260745   -4.708457301526    0.000000000000
 N   -1.630895260745   -5.423567301526    0.000000000000
 H   -2.508375260745   -4.921037301526    0.000000000000
 H   -1.662555260745   -6.433507301526    0.000000000000
 O   -0.505015260745   -3.460647301526    0.000000000000
 H    1.681294739255   -4.895497301526    0.000000000000
 H    0.810084739255   -6.184507301526    0.886820000000
 H    0.810084739255   -6.184507301526   -0.886820000000
RB   -0.088995260745   -0.609837301526    0.000000000000
 O    0.633009712881    4.337758965153    0.000000000000
 C    0.603147158533    5.585571682170    0.000000000000
 N    1.758901603385    6.300683193198    0.000000000000
 H    2.636377407728    5.798148190544    0.000000000000
 H    1.790567342504    7.310623777675    0.000000000000
 C   -0.665627683560    6.409118684151    0.000000000000
 H   -1.553299660840    5.772615813104    0.000000000000
 H   -0.682085035459    7.061627014575   -0.886819773796
 H   -0.682085035459    7.061627014575    0.886819773796
