19

 C    0.776825517181   -5.647115301330    0.000000000000
 C   -0.491944482819   -4.823575301330    0.000000000000
 N   -1.647694482819   -5.538685301330    0.000000000000
 H   -2.525174482818   -5.036155301330    0.000000000000
 H   -1.679354482819   -6.548625301330    0.000000000000
 O   -0.521814482819   -3.575765301330    0.000000000000
 H    1.664495517181   -5.010615301330    0.000000000000
 H    0.793285517181   -6.299625301330    0.886820000000
 H    0.793285517181   -6.299625301330   -0.886820000000
RB   -0.105794482819   -0.724955301330    0.000000000000
 O    0.673970888698    4.618448666684    0.000000000000
 C    0.644108334350    5.866261383700    0.000000000000
 N    1.799862779202    6.581372894729    0.000000000000
 H    2.677338583545    6.078837892075    0.000000000000
 H    1.831528518321    7.591313479205    0.000000000000
 C   -0.624666507743    6.689808385681    0.000000000000
 H   -1.512338485023    6.053305514634    0.000000000000
 H   -0.641123859642    7.342316716105   -0.886819773796
 H   -0.641123859642    7.342316716105    0.886819773796
