19

 C    0.743227073035   -5.877351300938    0.000000000000
 C   -0.525542926965   -5.053811300938    0.000000000000
 N   -1.681292926965   -5.768921300938    0.000000000000
 H   -2.558772926965   -5.266391300938    0.000000000000
 H   -1.712952926965   -6.778861300938    0.000000000000
 O   -0.555412926965   -3.806001300938    0.000000000000
 H    1.630897073035   -5.240851300938    0.000000000000
 H    0.759687073035   -6.529861300938    0.886820000000
 H    0.759687073035   -6.529861300938   -0.886820000000
RB   -0.139392926965   -0.955191300938    0.000000000000
 O    0.755893240332    5.179828069744    0.000000000000
 C    0.726030685984    6.427640786761    0.000000000000
 N    1.881785130836    7.142752297789    0.000000000000
 H    2.759260935179    6.640217295135    0.000000000000
 H    1.913450869955    8.152692882266    0.000000000000
 C   -0.542744156109    7.251187788741    0.000000000000
 H   -1.430416133389    6.614684917694    0.000000000000
 H   -0.559201508008    7.903696119165   -0.886819773796
 H   -0.559201508008    7.903696119165    0.886819773796
