19

 C    0.722228045444   -6.021248800693    0.000000000000
 C   -0.546541954556   -5.197708800693    0.000000000000
 N   -1.702291954556   -5.912818800693    0.000000000000
 H   -2.579771954556   -5.410288800693    0.000000000000
 H   -1.733951954556   -6.922758800693    0.000000000000
 O   -0.576411954556   -3.949898800693    0.000000000000
 H    1.609898045444   -5.384748800693    0.000000000000
 H    0.738688045444   -6.673758800693    0.886820000000
 H    0.738688045444   -6.673758800693   -0.886820000000
RB   -0.160391954556   -1.099088800693    0.000000000000
 O    0.807094710103    5.530690196657    0.000000000000
 C    0.777232155755    6.778502913673    0.000000000000
 N    1.932986600607    7.493614424702    0.000000000000
 H    2.810462404950    6.991079422048    0.000000000000
 H    1.964652339726    8.503555009179    0.000000000000
 C   -0.491542686338    7.602049915654    0.000000000000
 H   -1.379214663618    6.965547044607    0.000000000000
 H   -0.508000038237    8.254558246078   -0.886819773796
 H   -0.508000038237    8.254558246078    0.886819773796
