19

 C    0.718028239925   -6.050028300644    0.000000000000
 C   -0.550741760075   -5.226488300644    0.000000000000
 N   -1.706491760075   -5.941598300644    0.000000000000
 H   -2.583971760075   -5.439068300644    0.000000000000
 H   -1.738151760075   -6.951538300644    0.000000000000
 O   -0.580611760075   -3.978678300644    0.000000000000
 H    1.605698239925   -5.413528300644    0.000000000000
 H    0.734488239925   -6.702538300644    0.886820000000
 H    0.734488239925   -6.702538300644   -0.886820000000
RB   -0.164591760075   -1.127868300644    0.000000000000
 O    0.817335004057    5.600862622040    0.000000000000
 C    0.787472449709    6.848675339056    0.000000000000
 N    1.943226894561    7.563786850085    0.000000000000
 H    2.820702698904    7.061251847431    0.000000000000
 H    1.974892633680    8.573727434561    0.000000000000
 C   -0.481302392384    7.672222341037    0.000000000000
 H   -1.368974369664    7.035719469990    0.000000000000
 H   -0.497759744283    8.324730671461   -0.886819773796
 H   -0.497759744283    8.324730671461    0.886819773796
