19

 C    0.709628628889   -6.107587300546    0.000000000000
 C   -0.559141371111   -5.284047300546    0.000000000000
 N   -1.714891371111   -5.999157300546    0.000000000000
 H   -2.592371371111   -5.496627300546    0.000000000000
 H   -1.746551371111   -7.009097300546    0.000000000000
 O   -0.589011371111   -4.036237300546    0.000000000000
 H    1.597298628889   -5.471087300546    0.000000000000
 H    0.726088628889   -6.760097300546    0.886820000000
 H    0.726088628889   -6.760097300546   -0.886820000000
RB   -0.172991371111   -1.185427300546    0.000000000000
 O    0.837815591966    5.741207472805    0.000000000000
 C    0.807953037618    6.989020189821    0.000000000000
 N    1.963707482470    7.704131700850    0.000000000000
 H    2.841183286813    7.201596698196    0.000000000000
 H    1.995373221589    8.714072285326    0.000000000000
 C   -0.460821804475    7.812567191802    0.000000000000
 H   -1.348493781756    7.176064320755    0.000000000000
 H   -0.477279156375    8.465075522226   -0.886819773796
 H   -0.477279156375    8.465075522226    0.886819773796
