19

 C    0.705428823370   -6.136366800497    0.000000000000
 C   -0.563341176630   -5.312826800497    0.000000000000
 N   -1.719091176630   -6.027936800497    0.000000000000
 H   -2.596571176630   -5.525406800497    0.000000000000
 H   -1.750751176630   -7.037876800497    0.000000000000
 O   -0.593211176630   -4.065016800497    0.000000000000
 H    1.593098823370   -5.499866800497    0.000000000000
 H    0.721888823370   -6.788876800497    0.886820000000
 H    0.721888823370   -6.788876800497   -0.886820000000
RB   -0.177191176630   -1.214206800497    0.000000000000
 O    0.848055885920    5.811379898187    0.000000000000
 C    0.818193331572    7.059192615204    0.000000000000
 N    1.973947776424    7.774304126232    0.000000000000
 H    2.851423580767    7.271769123578    0.000000000000
 H    2.005613515543    8.784244710709    0.000000000000
 C   -0.450581510521    7.882739617184    0.000000000000
 H   -1.338253487801    7.246236746138    0.000000000000
 H   -0.467038862420    8.535247947609   -0.886819773796
 H   -0.467038862420    8.535247947609    0.886819773796
