19

 C    0.697029212334   -6.193925800399    0.000000000000
 C   -0.571740787666   -5.370385800399    0.000000000000
 N   -1.727490787666   -6.085495800399    0.000000000000
 H   -2.604970787666   -5.582965800399    0.000000000000
 H   -1.759150787666   -7.095435800399    0.000000000000
 O   -0.601610787666   -4.122575800399    0.000000000000
 H    1.584699212334   -5.557425800399    0.000000000000
 H    0.713489212334   -6.846435800399    0.886820000000
 H    0.713489212334   -6.846435800399   -0.886820000000
RB   -0.185590787666   -1.271765800399    0.000000000000
 O    0.868536473828    5.951724748952    0.000000000000
 C    0.838673919481    7.199537465969    0.000000000000
 N    1.994428364332    7.914648976997    0.000000000000
 H    2.871904168675    7.412113974343    0.000000000000
 H    2.026094103452    8.924589561474    0.000000000000
 C   -0.430100922612    8.023084467950    0.000000000000
 H   -1.317772899893    7.386581596903    0.000000000000
 H   -0.446558274512    8.675592798374   -0.886819773796
 H   -0.446558274512    8.675592798374    0.886819773796
