19

 C    0.684429795779   -6.280264300252    0.000000000000
 C   -0.584340204221   -5.456724300252    0.000000000000
 N   -1.740090204221   -6.171834300252    0.000000000000
 H   -2.617570204221   -5.669304300252    0.000000000000
 H   -1.771750204221   -7.181774300252    0.000000000000
 O   -0.614210204221   -4.208914300252    0.000000000000
 H    1.572099795779   -5.643764300252    0.000000000000
 H    0.700889795779   -6.932774300252    0.886820000000
 H    0.700889795779   -6.932774300252   -0.886820000000
RB   -0.198190204221   -1.358104300252    0.000000000000
 O    0.899257355691    6.162242025100    0.000000000000
 C    0.869394801343    7.410054742116    0.000000000000
 N    2.025149246195    8.125166253145    0.000000000000
 H    2.902625050538    7.622631250491    0.000000000000
 H    2.056814985314    9.135106837622    0.000000000000
 C   -0.399380040750    8.233601744097    0.000000000000
 H   -1.287052018030    7.597098873050    0.000000000000
 H   -0.415837392649    8.886110074521   -0.886819773796
 H   -0.415837392649    8.886110074521    0.886819773796
