19

 C    0.655031157151   -6.481720799910    0.000000000000
 C   -0.613738842849   -5.658180799910    0.000000000000
 N   -1.769488842849   -6.373290799910    0.000000000000
 H   -2.646968842849   -5.870760799910    0.000000000000
 H   -1.801148842849   -7.383230799910    0.000000000000
 O   -0.643608842849   -4.410370799910    0.000000000000
 H    1.542701157151   -5.845220799910    0.000000000000
 H    0.671491157151   -7.134230799910    0.886820000000
 H    0.671491157151   -7.134230799910   -0.886820000000
RB   -0.227588842849   -1.559560799910    0.000000000000
 O    0.970939413371    6.653449002778    0.000000000000
 C    0.941076859023    7.901261719794    0.000000000000
 N    2.096831303875    8.616373230823    0.000000000000
 H    2.974307108218    8.113838228169    0.000000000000
 H    2.128497042994    9.626313815300    0.000000000000
 C   -0.327697983070    8.724808721775    0.000000000000
 H   -1.215369960351    8.088305850728    0.000000000000
 H   -0.344155334970    9.377317052199   -0.886819773796
 H   -0.344155334970    9.377317052199    0.886819773796
