19

 C    0.650831351633   -6.510500299861    0.000000000000
 C   -0.617938648367   -5.686960299861    0.000000000000
 N   -1.773688648367   -6.402070299861    0.000000000000
 H   -2.651168648367   -5.899540299861    0.000000000000
 H   -1.805348648367   -7.412010299861    0.000000000000
 O   -0.647808648367   -4.439150299861    0.000000000000
 H    1.538501351633   -5.874000299861    0.000000000000
 H    0.667291351633   -7.163010299861    0.886820000000
 H    0.667291351633   -7.163010299861   -0.886820000000
RB   -0.231788648367   -1.588340299861    0.000000000000
 O    0.981179707325    6.723621428161    0.000000000000
 C    0.951317152977    7.971434145177    0.000000000000
 N    2.107071597829    8.686545656206    0.000000000000
 H    2.984547402172    8.184010653552    0.000000000000
 H    2.138737336948    9.696486240682    0.000000000000
 C   -0.317457689116    8.794981147158    0.000000000000
 H   -1.205129666396    8.158478276111    0.000000000000
 H   -0.333915041015    9.447489477582   -0.886819773796
 H   -0.333915041015    9.447489477582    0.886819773796
