19

 C    0.646631546114   -6.539279799812    0.000000000000
 C   -0.622138453886   -5.715739799812    0.000000000000
 N   -1.777888453886   -6.430849799812    0.000000000000
 H   -2.655368453886   -5.928319799812    0.000000000000
 H   -1.809548453886   -7.440789799812    0.000000000000
 O   -0.652008453886   -4.467929799812    0.000000000000
 H    1.534301546114   -5.902779799812    0.000000000000
 H    0.663091546114   -7.191789799812    0.886820000000
 H    0.663091546114   -7.191789799812   -0.886820000000
RB   -0.235988453886   -1.617119799812    0.000000000000
 O    0.991420001279    6.793793853543    0.000000000000
 C    0.961557446931    8.041606570560    0.000000000000
 N    2.117311891783    8.756718081588    0.000000000000
 H    2.994787696126    8.254183078934    0.000000000000
 H    2.148977630902    9.766658666065    0.000000000000
 C   -0.307217395162    8.865153572540    0.000000000000
 H   -1.194889372442    8.228650701494    0.000000000000
 H   -0.323674747061    9.517661902965   -0.886819773796
 H   -0.323674747061    9.517661902965    0.886819773796
