19

 C    0.642431740596   -6.568059299763    0.000000000000
 C   -0.626338259404   -5.744519299763    0.000000000000
 N   -1.782088259404   -6.459629299763    0.000000000000
 H   -2.659568259404   -5.957099299763    0.000000000000
 H   -1.813748259404   -7.469569299763    0.000000000000
 O   -0.656208259404   -4.496709299763    0.000000000000
 H    1.530101740596   -5.931559299763    0.000000000000
 H    0.658891740596   -7.220569299763    0.886820000000
 H    0.658891740596   -7.220569299763   -0.886820000000
RB   -0.240188259404   -1.645899299763    0.000000000000
 O    1.001660295233    6.863966278926    0.000000000000
 C    0.971797740886    8.111778995942    0.000000000000
 N    2.127552185737    8.826890506971    0.000000000000
 H    3.005027990080    8.324355504317    0.000000000000
 H    2.159217924857    9.836831091447    0.000000000000
 C   -0.296977101208    8.935325997923    0.000000000000
 H   -1.184649078488    8.298823126876    0.000000000000
 H   -0.313434453107    9.587834328347   -0.886819773796
 H   -0.313434453107    9.587834328347    0.886819773796
