19

 C    0.638231935078   -6.596838799714    0.000000000000
 C   -0.630538064922   -5.773298799714    0.000000000000
 N   -1.786288064922   -6.488408799714    0.000000000000
 H   -2.663768064922   -5.985878799714    0.000000000000
 H   -1.817948064922   -7.498348799714    0.000000000000
 O   -0.660408064922   -4.525488799714    0.000000000000
 H    1.525901935078   -5.960338799714    0.000000000000
 H    0.654691935078   -7.249348799714    0.886820000000
 H    0.654691935078   -7.249348799714   -0.886820000000
RB   -0.244388064922   -1.674678799714    0.000000000000
 O    1.011900589188    6.934138704308    0.000000000000
 C    0.982038034840    8.181951421325    0.000000000000
 N    2.137792479692    8.897062932353    0.000000000000
 H    3.015268284035    8.394527929699    0.000000000000
 H    2.169458218811    9.907003516830    0.000000000000
 C   -0.286736807253    9.005498423306    0.000000000000
 H   -1.174408784534    8.368995552259    0.000000000000
 H   -0.303194159153    9.658006753730   -0.886819773796
 H   -0.303194159153    9.658006753730    0.886819773796
