19

 C    0.629832324041   -6.654397799616    0.000000000000
 C   -0.638937675959   -5.830857799616    0.000000000000
 N   -1.794687675959   -6.545967799616    0.000000000000
 H   -2.672167675959   -6.043437799616    0.000000000000
 H   -1.826347675959   -7.555907799616    0.000000000000
 O   -0.668807675959   -4.583047799616    0.000000000000
 H    1.517502324041   -6.017897799616    0.000000000000
 H    0.646292324041   -7.306907799616    0.886820000000
 H    0.646292324041   -7.306907799616   -0.886820000000
RB   -0.252787675959   -1.732237799616    0.000000000000
 O    1.032381177096    7.074483555073    0.000000000000
 C    1.002518622748    8.322296272090    0.000000000000
 N    2.158273067600    9.037407783118    0.000000000000
 H    3.035748871943    8.534872780465    0.000000000000
 H    2.189938806719   10.047348367595    0.000000000000
 C   -0.266256219345    9.145843274071    0.000000000000
 H   -1.153928196625    8.509340403024    0.000000000000
 H   -0.282713571244    9.798351604495   -0.886819773796
 H   -0.282713571244    9.798351604495    0.886819773796
