19

 C    0.625632518523   -6.683177299567    0.000000000000
 C   -0.643137481477   -5.859637299567    0.000000000000
 N   -1.798887481477   -6.574747299567    0.000000000000
 H   -2.676367481477   -6.072217299567    0.000000000000
 H   -1.830547481477   -7.584687299567    0.000000000000
 O   -0.673007481477   -4.611827299567    0.000000000000
 H    1.513302518523   -6.046677299567    0.000000000000
 H    0.642092518523   -7.335687299567    0.886820000000
 H    0.642092518523   -7.335687299567   -0.886820000000
RB   -0.256987481477   -1.761017299567    0.000000000000
 O    1.042621471050    7.144655980456    0.000000000000
 C    1.012758916703    8.392468697472    0.000000000000
 N    2.168513361554    9.107580208501    0.000000000000
 H    3.045989165897    8.605045205847    0.000000000000
 H    2.200179100674   10.117520792978    0.000000000000
 C   -0.256015925391    9.216015699453    0.000000000000
 H   -1.143687902671    8.579512828406    0.000000000000
 H   -0.272473277290    9.868524029877   -0.886819773796
 H   -0.272473277290    9.868524029877    0.886819773796
