19

 C    0.617232907486   -6.740736299469    0.000000000000
 C   -0.651537092514   -5.917196299469    0.000000000000
 N   -1.807287092514   -6.632306299469    0.000000000000
 H   -2.684767092514   -6.129776299469    0.000000000000
 H   -1.838947092514   -7.642246299469    0.000000000000
 O   -0.681407092514   -4.669386299469    0.000000000000
 H    1.504902907486   -6.104236299469    0.000000000000
 H    0.633692907486   -7.393246299469    0.886820000000
 H    0.633692907486   -7.393246299469   -0.886820000000
RB   -0.265387092514   -1.818576299469    0.000000000000
 O    1.063102058959    7.285000831221    0.000000000000
 C    1.033239504611    8.532813548238    0.000000000000
 N    2.188993949463    9.247925059266    0.000000000000
 H    3.066469753806    8.745390056612    0.000000000000
 H    2.220659688582   10.257865643743    0.000000000000
 C   -0.235535337482    9.356360550218    0.000000000000
 H   -1.123207314763    8.719857679172    0.000000000000
 H   -0.251992689382   10.008868880643   -0.886819773796
 H   -0.251992689382   10.008868880643    0.886819773796
