19

 C    0.613033101968   -6.769515799420    0.000000000000
 C   -0.655736898032   -5.945975799420    0.000000000000
 N   -1.811486898032   -6.661085799420    0.000000000000
 H   -2.688966898032   -6.158555799420    0.000000000000
 H   -1.843146898032   -7.671025799420    0.000000000000
 O   -0.685606898032   -4.698165799420    0.000000000000
 H    1.500703101968   -6.133015799420    0.000000000000
 H    0.629493101968   -7.422025799420    0.886820000000
 H    0.629493101968   -7.422025799420   -0.886820000000
RB   -0.269586898032   -1.847355799420    0.000000000000
 O    1.073342352913    7.355173256604    0.000000000000
 C    1.043479798565    8.602985973620    0.000000000000
 N    2.199234243417    9.318097484649    0.000000000000
 H    3.076710047760    8.815562481995    0.000000000000
 H    2.230899982536   10.328038069125    0.000000000000
 C   -0.225295043528    9.426532975601    0.000000000000
 H   -1.112967020808    8.790030104554    0.000000000000
 H   -0.241752395427   10.079041306025   -0.886819773796
 H   -0.241752395427   10.079041306025    0.886819773796
