19

 C    0.608833296450   -6.798295299371    0.000000000000
 C   -0.659936703550   -5.974755299371    0.000000000000
 N   -1.815686703550   -6.689865299371    0.000000000000
 H   -2.693166703550   -6.187335299371    0.000000000000
 H   -1.847346703550   -7.699805299371    0.000000000000
 O   -0.689806703550   -4.726945299371    0.000000000000
 H    1.496503296450   -6.161795299371    0.000000000000
 H    0.625293296450   -7.450805299371    0.886820000000
 H    0.625293296450   -7.450805299371   -0.886820000000
RB   -0.273786703550   -1.876135299371    0.000000000000
 O    1.083582646867    7.425345681986    0.000000000000
 C    1.053720092519    8.673158399003    0.000000000000
 N    2.209474537371    9.388269910031    0.000000000000
 H    3.086950341714    8.885734907377    0.000000000000
 H    2.241140276490   10.398210494508    0.000000000000
 C   -0.215054749574    9.496705400984    0.000000000000
 H   -1.102726726854    8.860202529937    0.000000000000
 H   -0.231512101473   10.149213731408   -0.886819773796
 H   -0.231512101473   10.149213731408    0.886819773796
