19

 C    0.600433685413   -6.855854299273    0.000000000000
 C   -0.668336314587   -6.032314299273    0.000000000000
 N   -1.824086314587   -6.747424299273    0.000000000000
 H   -2.701566314587   -6.244894299273    0.000000000000
 H   -1.855746314587   -7.757364299273    0.000000000000
 O   -0.698206314587   -4.784504299273    0.000000000000
 H    1.488103685413   -6.219354299273    0.000000000000
 H    0.616893685413   -7.508364299273    0.886820000000
 H    0.616893685413   -7.508364299273   -0.886820000000
RB   -0.282186314587   -1.933694299273    0.000000000000
 O    1.104063234776    7.565690532751    0.000000000000
 C    1.074200680428    8.813503249768    0.000000000000
 N    2.229955125280    9.528614760796    0.000000000000
 H    3.107430929623    9.026079758142    0.000000000000
 H    2.261620864399   10.538555345273    0.000000000000
 C   -0.194574161665    9.637050251749    0.000000000000
 H   -1.082246138946    9.000547380702    0.000000000000
 H   -0.211031513565   10.289558582173   -0.886819773796
 H   -0.211031513565   10.289558582173    0.886819773796
