13

 N   -0.372072886722    1.417505739971    0.000110713560
 C    0.801666696361    2.144877931481   -0.000201765610
 H    0.683949836298    3.230196390525   -0.000317613169
 C   -0.417848859802    0.024293948104   -0.000274341009
 O   -1.469437028358   -0.609809365737    0.000069026095
 N    0.842591681339   -0.559176108028    0.000142562313
 H    0.852407478462   -1.577461219894    0.000115258218
 C    2.103845970572    0.076879378935    0.000159657149
 O    3.137538898640   -0.592384455481   -0.000586008515
 C    2.022367178812    1.537426440325   -0.000340240298
 H    2.945767317114    2.114486699191   -0.000680917075
 H   -1.275810062670    1.877159861331   -0.000090938040
 K   -2.325795992751   -1.126190277387    0.000348646488
