13

 N   -0.305777035509    1.457481863899    0.000089066478
 C    0.867962547574    2.184854055409   -0.000223412692
 H    0.750245687511    3.270172514453   -0.000339260251
 C   -0.351553008589    0.064270072032   -0.000295988091
 O   -1.403141177145   -0.569833241809    0.000047379013
 N    0.908887532552   -0.519199984100    0.000120915231
 H    0.918703329675   -1.537485095966    0.000093611136
 C    2.170141821785    0.116855502863    0.000138010067
 O    3.203834749853   -0.552408331553   -0.000607655597
 C    2.088663030025    1.577402564253   -0.000361887380
 H    3.012063168327    2.154462823119   -0.000702564157
 H   -1.209514211457    1.917135985259   -0.000112585122
 K   -2.516407830856   -1.241128426954    0.000410885525
