13

 N   -0.261579801367    1.484132613185    0.000074635091
 C    0.912159781716    2.211504804695   -0.000237844079
 H    0.794442921653    3.296823263739   -0.000353691638
 C   -0.307355774447    0.090920821318   -0.000310419478
 O   -1.358943943003   -0.543182492523    0.000032947626
 N    0.953084766694   -0.492549234814    0.000106483844
 H    0.962900563817   -1.510834346680    0.000079179749
 C    2.214339055927    0.143506252149    0.000123578680
 O    3.248031983995   -0.525757582267   -0.000622086984
 C    2.132860264167    1.604053313539   -0.000376318767
 H    3.056260402469    2.181113572405   -0.000716995544
 H   -1.165316977315    1.943786734545   -0.000127016509
 K   -2.643482389593   -1.317753859998    0.000452378216
