13

 N   -0.239481184296    1.497457987828    0.000067419397
 C    0.934258398787    2.224830179338   -0.000245059773
 H    0.816541538724    3.310148638382   -0.000360907332
 C   -0.285257157376    0.104246195961   -0.000317635172
 O   -1.336845325932   -0.529857117880    0.000025731932
 N    0.975183383765   -0.479223860171    0.000099268150
 H    0.984999180888   -1.497508972037    0.000071964055
 C    2.236437672998    0.156831626792    0.000116362986
 O    3.270130601066   -0.512432207624   -0.000629302678
 C    2.154958881238    1.617378688182   -0.000383534461
 H    3.078359019540    2.194438947048   -0.000724211238
 H   -1.143218360244    1.957112109188   -0.000134232203
 K   -2.707019668961   -1.356066576520    0.000473124562
