13

 N   -0.217382567225    1.510783362470    0.000060203703
 C    0.956357015858    2.238155553980   -0.000252275467
 H    0.838640155795    3.323474013024   -0.000368123026
 C   -0.263158540305    0.117571570603   -0.000324850866
 O   -1.314746708861   -0.516531743238    0.000018516238
 N    0.997282000836   -0.465898485529    0.000092052456
 H    1.007097797959   -1.484183597395    0.000064748361
 C    2.258536290069    0.170157001434    0.000109147292
 O    3.292229218137   -0.499106832982   -0.000636518372
 C    2.177057498309    1.630704062824   -0.000390750155
 H    3.100457636611    2.207764321690   -0.000731426932
 H   -1.121119743173    1.970437483830   -0.000141447897
 K   -2.770556948329   -1.394379293042    0.000493870908
