13

 N   -0.195283950154    1.524108737113    0.000052988010
 C    0.978455632929    2.251480928623   -0.000259491160
 H    0.860738772866    3.336799387667   -0.000375338719
 C   -0.241059923234    0.130896945246   -0.000332066559
 O   -1.292648091790   -0.503206368595    0.000011300545
 N    1.019380617907   -0.452573110886    0.000084836763
 H    1.029196415030   -1.470858222752    0.000057532668
 C    2.280634907140    0.183482376077    0.000101931599
 O    3.314327835208   -0.485781458339   -0.000643734065
 C    2.199156115380    1.644029437467   -0.000397965848
 H    3.122556253682    2.221089696333   -0.000738642625
 H   -1.099021126102    1.983762858473   -0.000148663590
 K   -2.834094227698   -1.432692009564    0.000514617253
