13

 N    1.616802649663    2.616789457826   -0.000538698875
 C    2.790542232746    3.344161649336   -0.000851178045
 H    2.672825372683    4.429480108380   -0.000967025604
 C    1.571026676583    1.223577665959   -0.000923753444
 O    0.519438508027    0.589474352118   -0.000580386340
 N    2.831467217724    0.640107609827   -0.000506850122
 H    2.841283014847   -0.378177502039   -0.000534154217
 C    4.092721506957    1.276163096790   -0.000489755286
 O    5.126414435025    0.606899262374   -0.001235420950
 C    4.011242715197    2.736710158180   -0.000989652733
 H    4.934642853499    3.313770417046   -0.001330329510
 H    0.713065473715    3.076443579186   -0.000740350475
 K   -8.044151135903   -4.574334764379    0.002215817595
