13

 N    0.003603603484    1.644037108899   -0.000011953234
 C    1.177343186567    2.371409300409   -0.000324432404
 H    1.059626326504    3.456727759453   -0.000440279963
 C   -0.042172369596    0.250825317032   -0.000397007803
 O   -1.093760538152   -0.383277996809   -0.000053640699
 N    1.218268171545   -0.332644739100    0.000019895519
 H    1.228083968668   -1.350929850966   -0.000007408576
 C    2.479522460778    0.303410747863    0.000036990355
 O    3.513215388846   -0.365853086553   -0.000708675309
 C    2.398043669018    1.763957809253   -0.000462907092
 H    3.321443807320    2.341018068119   -0.000803583869
 H   -0.900133572464    2.103691230259   -0.000213604834
 K   -3.405929742013   -1.777506458263    0.000701334364
