13

 N    0.047800837626    1.670687858185   -0.000026384621
 C    1.221540420709    2.398060049695   -0.000338863791
 H    1.103823560646    3.483378508739   -0.000454711350
 C    0.002024864546    0.277476066318   -0.000411439190
 O   -1.049563304010   -0.356627247523   -0.000068072086
 N    1.262465405687   -0.305993989814    0.000005464132
 H    1.272281202810   -1.324279101680   -0.000021839963
 C    2.523719694920    0.330061497149    0.000022558968
 O    3.557412622988   -0.339202337267   -0.000723106696
 C    2.442240903160    1.790608558539   -0.000477338479
 H    3.365641041462    2.367668817405   -0.000818015256
 H   -0.855936338322    2.130341979545   -0.000228036221
 K   -3.533004300750   -1.854131891308    0.000742827055
