13

 N    0.069899454697    1.684013232827   -0.000033600315
 C    1.243639037780    2.411385424337   -0.000346079485
 H    1.125922177717    3.496703883381   -0.000461927044
 C    0.024123481617    0.290801440960   -0.000418654884
 O   -1.027464686939   -0.343301872881   -0.000075287780
 N    1.284564022758   -0.292668615172   -0.000001751562
 H    1.294379819881   -1.310953727038   -0.000029055657
 C    2.545818311991    0.343386871791    0.000015343274
 O    3.579511240059   -0.325876962625   -0.000730322390
 C    2.464339520231    1.803933933181   -0.000484554173
 H    3.387739658533    2.380994192047   -0.000825230950
 H   -0.833837721251    2.143667354187   -0.000235251915
 K   -3.596541580118   -1.892444607830    0.000763573401
