13

 N    0.091998071768    1.697338607470   -0.000040816009
 C    1.265737654851    2.424710798980   -0.000353295179
 H    1.148020794788    3.510029258024   -0.000469142738
 C    0.046222098688    0.304126815603   -0.000425870578
 O   -1.005366069868   -0.329976498238   -0.000082503474
 N    1.306662639829   -0.279343240529   -0.000008967256
 H    1.316478436952   -1.297628352395   -0.000036271351
 C    2.567916929062    0.356712246434    0.000008127580
 O    3.601609857130   -0.312551587982   -0.000737538084
 C    2.486438137302    1.817259307824   -0.000491769867
 H    3.409838275604    2.394319566690   -0.000832446644
 H   -0.811739104180    2.156992728830   -0.000242467609
 K   -3.660078859486   -1.930757324352    0.000784319747
