13

 N    0.158293922981    1.737314731399   -0.000062463090
 C    1.332033506064    2.464686922909   -0.000374942260
 H    1.214316646001    3.550005381953   -0.000490789819
 C    0.112517949901    0.344102939532   -0.000447517659
 O   -0.939070218655   -0.290000374309   -0.000104150555
 N    1.372958491042   -0.239367116600   -0.000030614337
 H    1.382774288165   -1.257652228466   -0.000057918432
 C    2.634212780275    0.396688370363   -0.000013519501
 O    3.667905708343   -0.272575464053   -0.000759185165
 C    2.552733988515    1.857235431753   -0.000513416948
 H    3.476134126817    2.434295690619   -0.000854093725
 H   -0.745443252967    2.196968852759   -0.000264114690
 K   -3.850690697591   -2.045695473918    0.000846558783
