13

 N    0.180392540052    1.750640106042   -0.000069678783
 C    1.354132123135    2.478012297552   -0.000382157953
 H    1.236415263072    3.563330756596   -0.000498005512
 C    0.134616566972    0.357428314175   -0.000454733352
 O   -0.916971601584   -0.276674999666   -0.000111366248
 N    1.395057108113   -0.226041741957   -0.000037830030
 H    1.404872905236   -1.244326853823   -0.000065134125
 C    2.656311397346    0.410013745006   -0.000020735194
 O    3.690004325414   -0.259250089410   -0.000766400858
 C    2.574832605586    1.870560806396   -0.000520632641
 H    3.498232743888    2.447621065262   -0.000861309418
 H   -0.723344635896    2.210294227402   -0.000271330383
 K   -3.914227976960   -2.084008190440    0.000867305129
