13

 N    0.224589774194    1.777290855327   -0.000084110171
 C    1.398329357277    2.504663046837   -0.000396589341
 H    1.280612497214    3.589981505881   -0.000512436900
 C    0.178813801114    0.384079063460   -0.000469164740
 O   -0.872774367442   -0.250024250381   -0.000125797636
 N    1.439254342255   -0.199390992672   -0.000052261418
 H    1.449070139378   -1.217676104538   -0.000079565513
 C    2.700508631488    0.436664494291   -0.000035166582
 O    3.734201559556   -0.232599340125   -0.000780832246
 C    2.619029839728    1.897211555681   -0.000535064029
 H    3.542429978030    2.474271814547   -0.000875740806
 H   -0.679147401754    2.236944976687   -0.000285761771
 K   -4.041302535696   -2.160633623485    0.000908797820
