13

 N    0.312984242477    1.830592353899   -0.000112972946
 C    1.486723825560    2.557964545409   -0.000425452116
 H    1.369006965497    3.643283004453   -0.000541299675
 C    0.267208269397    0.437380562032   -0.000498027515
 O   -0.784379899159   -0.196722751809   -0.000154660411
 N    1.527648810538   -0.146089494100   -0.000081124193
 H    1.537464607661   -1.164374605966   -0.000108428288
 C    2.788903099771    0.489965992863   -0.000064029357
 O    3.822596027839   -0.179297841553   -0.000809695021
 C    2.707424308011    1.950513054253   -0.000563926804
 H    3.630824446313    2.527573313119   -0.000904603581
 H   -0.590752933471    2.290246475259   -0.000314624546
 K   -4.295451653170   -2.313884489573    0.000991783203
