13

 N    0.335082859548    1.843917728542   -0.000120188640
 C    1.508822442631    2.571289920052   -0.000432667810
 H    1.391105582568    3.656608379096   -0.000548515369
 C    0.289306886468    0.450705936675   -0.000505243209
 O   -0.762281282088   -0.183397377166   -0.000161876105
 N    1.549747427609   -0.132764119457   -0.000088339887
 H    1.559563224732   -1.151049231323   -0.000115643982
 C    2.811001716842    0.503291367506   -0.000071245051
 O    3.844694644910   -0.165972466910   -0.000816910715
 C    2.729522925082    1.963838428896   -0.000571142498
 H    3.652923063384    2.540898687762   -0.000911819275
 H   -0.568654316400    2.303571849902   -0.000321840240
 K   -4.358988932538   -2.352197206095    0.001012529549
