13

 N    0.357181476619    1.857243103184   -0.000127404333
 C    1.530921059702    2.584615294694   -0.000439883503
 H    1.413204199639    3.669933753738   -0.000555731062
 C    0.311405503539    0.464031311317   -0.000512458902
 O   -0.740182665017   -0.170072002524   -0.000169091798
 N    1.571846044680   -0.119438744815   -0.000095555580
 H    1.581661841803   -1.137723856681   -0.000122859675
 C    2.833100333913    0.516616742148   -0.000078460744
 O    3.866793261981   -0.152647092268   -0.000824126408
 C    2.751621542153    1.977163803538   -0.000578358191
 H    3.675021680455    2.554224062404   -0.000919034968
 H   -0.546555699329    2.316897224544   -0.000329055933
 K   -4.422526211906   -2.390509922618    0.001033275894
