13

 N    0.401378710761    1.883893852470   -0.000141835721
 C    1.575118293844    2.611266043980   -0.000454314891
 H    1.457401433781    3.696584503024   -0.000570162450
 C    0.355602737681    0.490682060603   -0.000526890290
 O   -0.695985430875   -0.143421253238   -0.000183523186
 N    1.616043278822   -0.092787995529   -0.000109986968
 H    1.625859075945   -1.111073107395   -0.000137291063
 C    2.877297568055    0.543267491434   -0.000092892132
 O    3.910990496123   -0.125996342982   -0.000838557796
 C    2.795818776295    2.003814552824   -0.000592789579
 H    3.719218914597    2.580874811690   -0.000933466356
 H   -0.502358465187    2.343547973830   -0.000343487321
 K   -4.549600770643   -2.467135355662    0.001074768585
