13

 N    0.511871796116    1.950520725684   -0.000177914189
 C    1.685611379199    2.677892917194   -0.000490393359
 H    1.567894519136    3.763211376238   -0.000606240918
 C    0.466095823036    0.557308933817   -0.000562968758
 O   -0.585492345520   -0.076794380024   -0.000219601654
 N    1.726536364177   -0.026161122315   -0.000146065436
 H    1.736352161300   -1.044446234181   -0.000173369531
 C    2.987790653410    0.609894364648   -0.000128970600
 O    4.021483581478   -0.059369469768   -0.000874636264
 C    2.906311861650    2.070441426038   -0.000628868047
 H    3.829711999952    2.647501684904   -0.000969544824
 H   -0.391865379832    2.410174847044   -0.000379565789
 K   -4.867287167485   -2.658698938272    0.001178500314
