13

 N    0.644463498542    2.030472973541   -0.000221208352
 C    1.818203081625    2.757845165051   -0.000533687522
 H    1.700486221562    3.843163624095   -0.000649535081
 C    0.598687525462    0.637261181674   -0.000606262921
 O   -0.452900643094    0.003157867833   -0.000262895817
 N    1.859128066603    0.053791125542   -0.000189359599
 H    1.868943863726   -0.964493986324   -0.000216663694
 C    3.120382355836    0.689846612505   -0.000172264763
 O    4.154075283904    0.020582778089   -0.000917930427
 C    3.038903564076    2.150393673895   -0.000672162210
 H    3.962303702378    2.727453932761   -0.001012838987
 H   -0.259273677406    2.490127094901   -0.000422859952
 K   -5.248510843695   -2.888575237405    0.001302978387
