13

 N    0.666562115613    2.043798348184   -0.000228424045
 C    1.840301698696    2.771170539694   -0.000540903215
 H    1.722584838633    3.856488998738   -0.000656750774
 C    0.620786142533    0.650586556317   -0.000613478614
 O   -0.430802026023    0.016483242476   -0.000270111510
 N    1.881226683674    0.067116500185   -0.000196575292
 H    1.891042480797   -0.951168611681   -0.000223879387
 C    3.142480972907    0.703171987148   -0.000179480456
 O    4.176173900975    0.033908152732   -0.000925146120
 C    3.061002181147    2.163719048538   -0.000679377903
 H    3.984402319449    2.740779307404   -0.001020054680
 H   -0.237175060335    2.503452469544   -0.000430075645
 K   -5.312048123063   -2.926887953927    0.001323724733
