13

 N    0.710759349754    2.070449097470   -0.000242855433
 C    1.884498932837    2.797821288980   -0.000555334603
 H    1.766782072774    3.883139748024   -0.000671182162
 C    0.664983376674    0.677237305603   -0.000627910002
 O   -0.386604791882    0.043133991762   -0.000284542898
 N    1.925423917815    0.093767249471   -0.000211006680
 H    1.935239714938   -0.924517862395   -0.000238310775
 C    3.186678207048    0.729822736434   -0.000193911844
 O    4.220371135116    0.060558902018   -0.000939577508
 C    3.105199415288    2.190369797824   -0.000693809291
 H    4.028599553590    2.767430056690   -0.001034486068
 H   -0.192977826194    2.530103218830   -0.000444507033
 K   -5.439122681800   -3.003513386972    0.001365217424
