13

 N    0.821252435109    2.137075970684   -0.000278933901
 C    1.994992018192    2.864448162194   -0.000591413071
 H    1.877275158129    3.949766621238   -0.000707260630
 C    0.775476462029    0.743864178817   -0.000663988470
 O   -0.276111706527    0.109760864976   -0.000320621366
 N    2.035917003170    0.160394122685   -0.000247085148
 H    2.045732800293   -0.857890989181   -0.000274389243
 C    3.297171292403    0.796449609648   -0.000229990312
 O    4.330864220471    0.127185775232   -0.000975655976
 C    3.215692500643    2.256996671038   -0.000729887759
 H    4.139092638945    2.834056929904   -0.001070564536
 H   -0.082484740839    2.596730092044   -0.000480585501
 K   -5.756809078642   -3.195076969582    0.001468949153
