13

 N    0.909646903393    2.190377469255   -0.000307796676
 C    2.083386486476    2.917749660765   -0.000620275846
 H    1.965669626413    4.003068119809   -0.000736123405
 C    0.863870930313    0.797165677388   -0.000692851245
 O   -0.187717238243    0.163062363547   -0.000349484141
 N    2.124311471454    0.213695621256   -0.000275947923
 H    2.134127268577   -0.804589490610   -0.000303252018
 C    3.385565760687    0.849751108219   -0.000258853087
 O    4.419258688755    0.180487273803   -0.001004518751
 C    3.304086968927    2.310298169609   -0.000758750534
 H    4.227487107229    2.887358428475   -0.001099427311
 H    0.005909727445    2.650031590615   -0.000509448276
 K   -6.010958196115   -3.348327835671    0.001551934535
