13

 N    0.953844137535    2.217028218541   -0.000322228064
 C    2.127583720618    2.944400410051   -0.000634707234
 H    2.009866860555    4.029718869095   -0.000750554793
 C    0.908068164455    0.823816426674   -0.000707282633
 O   -0.143520004101    0.189713112833   -0.000363915529
 N    2.168508705596    0.240346370542   -0.000290379311
 H    2.178324502719   -0.777938741324   -0.000317683406
 C    3.429762994829    0.876401857505   -0.000273284475
 O    4.463455922897    0.207138023089   -0.001018950139
 C    3.348284203069    2.336948918895   -0.000773181922
 H    4.271684341371    2.914009177761   -0.001113858699
 H    0.050106961587    2.676682339901   -0.000523879664
 K   -6.138032754852   -3.424953268715    0.001593427226
