13

 N    0.998041371677    2.243678967827   -0.000336659451
 C    2.171780954760    2.971051159337   -0.000649138621
 H    2.054064094697    4.056369618381   -0.000764986180
 C    0.952265398597    0.850467175960   -0.000721714020
 O   -0.099322769959    0.216363862119   -0.000378346916
 N    2.212705939738    0.266997119828   -0.000304810698
 H    2.222521736861   -0.751287992038   -0.000332114793
 C    3.473960228971    0.903052606791   -0.000287715862
 O    4.507653157039    0.233788772375   -0.001033381526
 C    3.392481437211    2.363599668181   -0.000787613309
 H    4.315881575513    2.940659927047   -0.001128290086
 H    0.094304195729    2.703333089187   -0.000538311051
 K   -6.265107313589   -3.501578701759    0.001634919918
