13

 N    1.042238605819    2.270329717112   -0.000351090839
 C    2.215978188902    2.997701908622   -0.000663570009
 H    2.098261328839    4.083020367666   -0.000779417568
 C    0.996462632739    0.877117925245   -0.000736145408
 O   -0.055125535817    0.243014611404   -0.000392778304
 N    2.256903173880    0.293647869113   -0.000319242086
 H    2.266718971003   -0.724637242753   -0.000346546181
 C    3.518157463113    0.929703356076   -0.000302147250
 O    4.551850391181    0.260439521660   -0.001047812914
 C    3.436678671353    2.390250417466   -0.000802044697
 H    4.360078809655    2.967310676332   -0.001142721474
 H    0.138501429871    2.729983838472   -0.000552742439
 K   -6.392181872325   -3.578204134804    0.001676412609
