13

 N    1.086435839960    2.296980466398   -0.000365522226
 C    2.260175423043    3.024352657908   -0.000678001396
 H    2.142458562980    4.109671116952   -0.000793848955
 C    1.040659866880    0.903768674531   -0.000750576795
 O   -0.010928301676    0.269665360690   -0.000407209691
 N    2.301100408021    0.320298618399   -0.000333673473
 H    2.310916205144   -0.697986493467   -0.000360977568
 C    3.562354697254    0.956354105362   -0.000316578637
 O    4.596047625322    0.287090270946   -0.001062244301
 C    3.480875905494    2.416901166752   -0.000816476084
 H    4.404276043796    2.993961425618   -0.001157152861
 H    0.182698664012    2.756634587758   -0.000567173826
 K   -6.519256431062   -3.654829567848    0.001717905300
