13

 N    1.108534457031    2.310305841041   -0.000372737920
 C    2.282274040114    3.037678032551   -0.000685217090
 H    2.164557180051    4.122996491595   -0.000801064649
 C    1.062758483951    0.917094049174   -0.000757792489
 O    0.011170315395    0.282990735333   -0.000414425385
 N    2.323199025092    0.333623993042   -0.000340889167
 H    2.333014822215   -0.684661118824   -0.000368193262
 C    3.584453314325    0.969679480005   -0.000323794331
 O    4.618146242393    0.300415645589   -0.001069459995
 C    3.502974522565    2.430226541395   -0.000823691778
 H    4.426374660867    3.007286800261   -0.001164368555
 H    0.204797281083    2.769959962401   -0.000574389520
 K   -6.582793710431   -3.693142284370    0.001738651646
