13

 N    1.152731691173    2.336956590327   -0.000387169307
 C    2.326471274256    3.064328781837   -0.000699648477
 H    2.208754414193    4.149647240881   -0.000815496036
 C    1.106955718093    0.943744798460   -0.000772223876
 O    0.055367549537    0.309641484619   -0.000428856772
 N    2.367396259234    0.360274742328   -0.000355320554
 H    2.377212056357   -0.658010369538   -0.000382624649
 C    3.628650548467    0.996330229291   -0.000338225718
 O    4.662343476535    0.327066394875   -0.001083891382
 C    3.547171756707    2.456877290681   -0.000838123165
 H    4.470571895009    3.033937549547   -0.001178799942
 H    0.248994515225    2.796610711687   -0.000588820907
 K   -6.709868269167   -3.769767717414    0.001780144337
