13

 N    1.174830308244    2.350281964970   -0.000394385001
 C    2.348569891327    3.077654156480   -0.000706864171
 H    2.230853031264    4.162972615524   -0.000822711730
 C    1.129054335164    0.957070173103   -0.000779439570
 O    0.077466166608    0.322966859262   -0.000436072466
 N    2.389494876305    0.373600116971   -0.000362536248
 H    2.399310673428   -0.644684994895   -0.000389840343
 C    3.650749165538    1.009655603934   -0.000345441412
 O    4.684442093606    0.340391769518   -0.001091107076
 C    3.569270373778    2.470202665324   -0.000845338859
 H    4.492670512080    3.047262924190   -0.001186015636
 H    0.271093132296    2.809936086330   -0.000596036601
 K   -6.773405548536   -3.808080433936    0.001800890683
