13

 N    1.241126159457    2.390258088898   -0.000416032082
 C    2.414865742540    3.117630280408   -0.000728511252
 H    2.297148882477    4.202948739452   -0.000844358811
 C    1.195350186377    0.997046297031   -0.000801086651
 O    0.143762017821    0.362942983190   -0.000457719547
 N    2.455790727518    0.413576240899   -0.000384183329
 H    2.465606524641   -0.604708870967   -0.000411487424
 C    3.717045016751    1.049631727862   -0.000367088493
 O    4.750737944819    0.380367893446   -0.001112754157
 C    3.635566224991    2.510178789252   -0.000866985940
 H    4.558966363293    3.087239048118   -0.001207662717
 H    0.337388983509    2.849912210258   -0.000617683682
 K   -6.964017386641   -3.923018583503    0.001863129720
