13

 N    1.263224776528    2.403583463541   -0.000423247776
 C    2.436964359611    3.130955655051   -0.000735726946
 H    2.319247499548    4.216274114095   -0.000851574505
 C    1.217448803448    1.010371671674   -0.000808302345
 O    0.165860634892    0.376268357833   -0.000464935241
 N    2.477889344589    0.426901615542   -0.000391399023
 H    2.487705141712   -0.591383496324   -0.000418703118
 C    3.739143633822    1.062957102505   -0.000374304187
 O    4.772836561890    0.393693268089   -0.001119969851
 C    3.657664842062    2.523504163895   -0.000874201634
 H    4.581064980364    3.100564422761   -0.001214878411
 H    0.359487600580    2.863237584901   -0.000624899376
 K   -7.027554666009   -3.961331300025    0.001883876065
