13

 N    1.307422010670    2.430234212827   -0.000437679163
 C    2.481161593753    3.157606404337   -0.000750158333
 H    2.363444733690    4.242924863381   -0.000866005892
 C    1.261646037590    1.037022420960   -0.000822733732
 O    0.210057869034    0.402919107119   -0.000479366628
 N    2.522086578731    0.453552364828   -0.000405830410
 H    2.531902375854   -0.564732747038   -0.000433134505
 C    3.783340867964    1.089607851791   -0.000388735574
 O    4.817033796032    0.420344017375   -0.001134401238
 C    3.701862076204    2.550154913181   -0.000888633021
 H    4.625262214506    3.127215172047   -0.001229309798
 H    0.403684834722    2.889888334187   -0.000639330763
 K   -7.154629224746   -4.037956733069    0.001925368757
