13

 N    1.373717861883    2.470210336755   -0.000459326244
 C    2.547457444966    3.197582528265   -0.000771805414
 H    2.429740584903    4.282900987309   -0.000887652973
 C    1.327941888803    1.076998544888   -0.000844380813
 O    0.276353720247    0.442895231047   -0.000501013709
 N    2.588382429944    0.493528488756   -0.000427477491
 H    2.598198227067   -0.524756623110   -0.000454781586
 C    3.849636719177    1.129583975719   -0.000410382655
 O    4.883329647245    0.460320141303   -0.001156048319
 C    3.768157927417    2.590131037109   -0.000910280102
 H    4.691558065719    3.167191295975   -0.001250956879
 H    0.469980685935    2.929864458115   -0.000660977844
 K   -7.345241062851   -4.152894882636    0.001987607793
