13

 N    1.395816478954    2.483535711398   -0.000466541938
 C    2.569556062037    3.210907902908   -0.000779021108
 H    2.451839201974    4.296226361952   -0.000894868667
 C    1.350040505874    1.090323919531   -0.000851596507
 O    0.298452337318    0.456220605690   -0.000508229403
 N    2.610481047015    0.506853863399   -0.000434693185
 H    2.620296844138   -0.511431248467   -0.000461997280
 C    3.871735336248    1.142909350362   -0.000417598349
 O    4.905428264316    0.473645515946   -0.001163264013
 C    3.790256544488    2.603456411752   -0.000917495796
 H    4.713656682790    3.180516670618   -0.001258172573
 H    0.492079303006    2.943189832758   -0.000668193538
 K   -7.408778342219   -4.191207599158    0.002008354139
