13

 N    1.440013713096    2.510186460684   -0.000480973326
 C    2.613753296179    3.237558652194   -0.000793452496
 H    2.496036436116    4.322877111238   -0.000909300055
 C    1.394237740016    1.116974668817   -0.000866027895
 O    0.342649571460    0.482871354976   -0.000522660791
 N    2.654678281157    0.533504612685   -0.000449124573
 H    2.664494078280   -0.484780499181   -0.000476428668
 C    3.915932570390    1.169560099648   -0.000432029737
 O    4.949625498458    0.500296265232   -0.001177695401
 C    3.834453778630    2.630107161038   -0.000931927184
 H    4.757853916932    3.207167419904   -0.001272603961
 H    0.536276537148    2.969840582044   -0.000682624926
 K   -7.535852900956   -4.267833032202    0.002049846830
