13

 N    1.572605415521    2.590138708541   -0.000524267488
 C    2.746344998604    3.317510900051   -0.000836746658
 H    2.628628138541    4.402829359095   -0.000952594217
 C    1.526829442441    1.196926916674   -0.000909322057
 O    0.475241273885    0.562823602833   -0.000565954953
 N    2.787269983582    0.613456860542   -0.000492418735
 H    2.797085780705   -0.404828251324   -0.000519722830
 C    4.048524272815    1.249512347505   -0.000475323899
 O    5.082217200883    0.580248513089   -0.001220989563
 C    3.967045481055    2.710059408895   -0.000975221346
 H    4.890445619357    3.287119667761   -0.001315898123
 H    0.668868239573    3.049792829901   -0.000725919088
 K   -7.917076577166   -4.497709331335    0.002174324904
