13

 N    1.594704032592    2.603464083184   -0.000531483182
 C    2.768443615675    3.330836274694   -0.000843962352
 H    2.650726755612    4.416154733738   -0.000959809911
 C    1.548928059512    1.210252291317   -0.000916537751
 O    0.497339890956    0.576148977476   -0.000573170647
 N    2.809368600653    0.626782235185   -0.000499634429
 H    2.819184397776   -0.391502876681   -0.000526938524
 C    4.070622889886    1.262837722148   -0.000482539593
 O    5.104315817954    0.593573887732   -0.001228205257
 C    3.989144098126    2.723384783538   -0.000982437040
 H    4.912544236428    3.300445042404   -0.001323113817
 H    0.690966856644    3.063118204544   -0.000733134782
 K   -7.980613856534   -4.536022047857    0.002195071250
