26

 N   -4.449757968661    2.790443710117    0.037192476445
 C   -3.259167968661    3.433733710117    0.059452476445
 H   -3.302037968661    4.524293710117    0.087152476445
 C   -4.591627968661    1.395973710117    0.000412476445
 O   -5.645857968661    0.803533710117   -0.021127523555
 N   -3.334227968661    0.741453710117   -0.009307523555
 H   -3.395227968661   -0.276956289883   -0.037147523555
 C   -2.106687968661    1.326973710117    0.010752476445
 O   -1.058667968661    0.560073710117   -0.003987523555
 C   -2.061437968661    2.744873710117    0.047432476445
 H   -1.110117968661    3.271143710117    0.065442476445
 H   -5.326227968661    3.313063710117    0.045682476445
LI    0.132862031339   -0.118686289883    1.279852476445
LI    0.177742031339   -0.045646289883   -1.277687523555
 O    1.039219378190   -0.549794877774    0.004774051153
 C    2.087234841239   -1.316701592942   -0.009966788011
 N    3.314785726641   -0.731124490363    0.007580664336
 H    3.375793539419    0.287337533862    0.033625556176
 C    4.572180943810   -1.385637017435   -0.002601484049
 O    5.626426358557   -0.793131732095    0.016637861852
 N    4.430299682777   -2.780169735120   -0.036848083495
 H    5.306760036691   -3.302779471792   -0.045551045768
 C    3.239693775238   -3.423517532166   -0.056548019240
 H    3.282555380646   -4.514117884734   -0.082467437851
 C    2.041970060630   -2.734669991609   -0.044203103915
 H    1.090632588840   -3.260988207387   -0.060153843973
