26

 N   -4.491348618311    2.812450034083    0.036900098805
 C   -3.300758618311    3.455740034083    0.059160098805
 H   -3.343628618311    4.546300034083    0.086860098805
 C   -4.633218618311    1.417980034083    0.000120098805
 O   -5.687448618311    0.825540034083   -0.021419901195
 N   -3.375818618311    0.763460034083   -0.009599901195
 H   -3.436818618311   -0.254949965917   -0.037439901195
 C   -2.148278618311    1.348980034083    0.010460098805
 O   -1.100258618311    0.582080034083   -0.004279901195
 C   -2.103028618311    2.766880034083    0.047140098805
 H   -1.151708618311    3.293150034083    0.065150098805
 H   -5.367818618311    3.335070034083    0.045390098805
LI    0.091271381689   -0.096679965917    1.279560098805
LI    0.136151381689   -0.023639965917   -1.277979901195
 O    1.086020463225   -0.574551412596    0.004850830984
 C    2.134035926274   -1.341458127765   -0.009890008180
 N    3.361584539572   -0.755897468833    0.008351403537
 H    3.422590053392    0.262551857314    0.034893478698
 C    4.618978914689   -1.410413534241   -0.001706526003
 O    5.673221533484   -0.817924330676    0.018170709089
 N    4.477100320513   -2.804929138537   -0.036653863386
 H    5.353560205575   -3.327540583452   -0.045301286124
 C    3.286497044165   -3.448259724942   -0.057062132427
 H    3.329360430747   -4.538848121792   -0.083476924612
 C    2.088773651057   -2.759410058569   -0.044804957411
 H    1.137438273811   -3.285714422971   -0.061327415176
