26

 N   -4.616120389257    2.878469000808    0.036035890629
 C   -3.425530389257    3.521759000808    0.058295890629
 H   -3.468400389257    4.612319000808    0.085995890629
 C   -4.757990389257    1.483999000808   -0.000744109371
 O   -5.812220389257    0.891559000808   -0.022284109371
 N   -3.500590389257    0.829479000808   -0.010464109371
 H   -3.561590389257   -0.188930999192   -0.038304109371
 C   -2.273050389257    1.414999000808    0.009595890629
 O   -1.225030389257    0.648099000808   -0.005144109371
 C   -2.227800389257    2.832899000808    0.046275890629
 H   -1.276480389257    3.359169000808    0.064285890629
 H   -5.492590389257    3.401089000808    0.044525890629
LI   -0.033500389257   -0.030660999192    1.278695890629
LI    0.011379610743    0.042379000808   -1.278844109371
 O    1.226423896334   -0.648821022239    0.005094095220
 C    2.274439359383   -1.415727737407   -0.009646743944
 N    3.501980067140   -0.830216445275    0.010600971590
 H    3.562977976727    0.188194860786    0.038580448225
 C    4.759371768487   -1.484743067346    0.000902168366
 O    5.813605075165   -0.892302036829    0.022623599045
 N    4.617502234224   -2.879207350690   -0.036071068269
 H    5.493960656779   -3.401823880508   -0.044557922411
 C    3.426907929296   -3.522486314989   -0.058527195813
 H    3.469777419605   -4.613038842783   -0.086374160142
 C    2.229185634680   -2.833630271726   -0.046523686346
 H    1.277857414201   -3.359893085586   -0.064699034196
