26

 N   -4.657710926299    2.900475316759    0.035751936086
 C   -3.467120926299    3.543765316759    0.058011936086
 H   -3.509990926299    4.634325316759    0.085711936086
 C   -4.799580926299    1.506005316759   -0.001028063914
 O   -5.853810926299    0.913565316759   -0.022568063914
 N   -3.542180926299    0.851485316759   -0.010748063914
 H   -3.603180926299   -0.166924683241   -0.038588063914
 C   -2.314640926299    1.437005316759    0.009311936086
 O   -1.266620926299    0.670105316759   -0.005428063914
 C   -2.269390926299    2.854905316759    0.045991936086
 H   -1.318070926299    3.381175316759    0.064001936086
 H   -5.534180926299    3.423095316759    0.044241936086
LI   -0.075090926299   -0.008654683241    1.278411936086
LI   -0.030210926299    0.064385316759   -1.279128063914
 O    1.273225093977   -0.673577565077    0.005179298149
 C    2.321240557026   -1.440484280246   -0.009561541016
 N    3.548778302693   -0.854989427980    0.011330881843
 H    3.609773466566    0.163409247779    0.039772253086
 C    4.806169069345   -1.509519545502    0.001747479808
 O    5.860398995989   -0.917094524699    0.024061524587
 N    4.664302872252   -2.903966755395   -0.035876760316
 H    5.540760791081   -3.426584965328   -0.044312017714
 C    3.473711880672   -3.547228543164   -0.058990947859
 H    3.516583633401   -4.637769133381   -0.087298127290
 C    2.275989992367   -2.858370377882   -0.047068951429
 H    1.324664419090   -3.384619365070   -0.065775439956
