26

 N   -4.699301439482    2.922481627526    0.035469947422
 C   -3.508711439482    3.565771627526    0.057729947422
 H   -3.551581439482    4.656331627526    0.085429947422
 C   -4.841171439482    1.528011627526   -0.001310052578
 O   -5.895401439482    0.935571627526   -0.022850052578
 N   -3.583771439482    0.873491627526   -0.011030052578
 H   -3.644771439482   -0.144918372474   -0.038870052578
 C   -2.356231439482    1.459011627526    0.009029947422
 O   -1.308211439482    0.692111627526   -0.005710052578
 C   -2.310981439482    2.876911627526    0.045709947422
 H   -1.359661439482    3.403181627526    0.063719947422
 H   -5.575771439482    3.445101627526    0.043959947422
LI   -0.116681439482    0.013351627526    1.278129947422
LI   -0.071801439482    0.086391627526   -1.279410052578
 O    1.320026315479   -0.698334113099    0.005266466955
 C    2.368041778528   -1.465240828267   -0.009474372209
 N    3.595576415241   -0.879762395615    0.012051262943
 H    3.656568739287    0.138623679536    0.040946292731
 C    4.852966228113   -1.534295995114    0.002581204153
 O    5.907192651433   -0.941886949400    0.025477296233
 N    4.711103510323   -2.928726160436   -0.035682431863
 H    5.587560918423   -3.451346042368   -0.044067012713
 C    3.520515976833   -3.571970799406   -0.059442946040
 H    3.563390094184   -4.662499470106   -0.088202134878
 C    2.322794512841   -2.883110515440   -0.047601009255
 H    1.371471704074   -3.409345697679   -0.066829168119
