26

 N   -4.865663282976    3.010506798153    0.034360637825
 C   -3.675073282976    3.653796798153    0.056620637825
 H   -3.717943282976    4.744356798153    0.084320637825
 C   -5.007533282976    1.616036798153   -0.002419362175
 O   -6.061763282976    1.023596798153   -0.023959362175
 N   -3.750133282976    0.961516798153   -0.012139362175
 H   -3.811133282976   -0.056893201847   -0.039979362175
 C   -2.522593282976    1.547036798153    0.007920637825
 O   -1.474573282976    0.780136798153   -0.006819362175
 C   -2.477343282976    2.964936798153    0.044600637825
 H   -1.526023282976    3.491206798153    0.062610637825
 H   -5.742133282976    3.533126798153    0.042850637825
LI   -0.283043282976    0.101376798153    1.277020637825
LI   -0.238163282976    0.174416798153   -1.280519362175
 O    1.507231410726   -0.797360377628    0.005633787242
 C    2.555246873775   -1.564267092796   -0.009107051923
 N    3.782767781393   -0.978854010383    0.014842409453
 H    3.843747924903    0.039482041523    0.045473959965
 C    5.040153615978   -1.633401385600    0.005806205549
 O    6.094364948247   -1.041055786723    0.030930267838
 N    4.898306062839   -3.027763784021   -0.034904923611
 H    5.774761369562   -3.550390266086   -0.043095525647
 C    3.707733632802   -3.670940229781   -0.061139461065
 H    3.750618106830   -4.761421490888   -0.091628861878
 C    2.510014024205   -2.982071519921   -0.049603978377
 H    1.558703303996   -3.508251800558   -0.070828998631
