26

 N   -4.907253698185    3.032513068199    0.034087733352
 C   -3.716663698185    3.675803068199    0.056347733352
 H   -3.759533698185    4.766363068199    0.084047733352
 C   -5.049123698185    1.638043068199   -0.002692266648
 O   -6.103353698185    1.045603068199   -0.024232266648
 N   -3.791723698185    0.983523068199   -0.012412266648
 H   -3.852723698185   -0.034886931801   -0.040252266648
 C   -2.564183698185    1.569043068199    0.007647733352
 O   -1.516163698185    0.802143068199   -0.007092266648
 C   -2.518933698185    2.986943068199    0.044327733352
 H   -1.567613698185    3.513213068199    0.062337733352
 H   -5.783723698185    3.555133068199    0.042577733352
LI   -0.324633698185    0.123383068199    1.276747733352
LI   -0.279753698185    0.196423068199   -1.280792266648
 O    1.554032730202   -0.822116966371    0.005730040239
 C    2.602048193251   -1.589023681539   -0.009010798925
 N    3.829565385025   -1.003626827097    0.015518756863
 H    3.890542305228    0.014696831680    0.046565907747
 C    5.086950190490   -1.658177604463    0.006586386690
 O    6.141157515679   -1.065847730544    0.032243667910
 N    4.945106700981   -3.052523190786   -0.034710500426
 H    5.821561470351   -3.575151299501   -0.042854678015
 C    3.754538324632   -3.695682715987   -0.061537145400
 H    3.797425584322   -4.786152211033   -0.092440637622
 C    2.556819214463   -3.006811915253   -0.050075006322
 H    1.605511741721   -3.532978572110   -0.071777935085
