26

 N   -4.948844097536    3.054519327634    0.033816508343
 C   -3.758254097536    3.697809327634    0.056076508343
 H   -3.801124097536    4.788369327634    0.083776508343
 C   -5.090714097536    1.660049327634   -0.002963491657
 O   -6.144944097536    1.067609327634   -0.024503491657
 N   -3.833314097536    1.005529327634   -0.012683491657
 H   -3.894314097536   -0.012880672366   -0.040523491657
 C   -2.605774097536    1.591049327634    0.007376508343
 O   -1.557754097536    0.824149327634   -0.007363491657
 C   -2.560524097536    3.008949327634    0.044056508343
 H   -1.609204097536    3.535219327634    0.062066508343
 H   -5.825314097536    3.577139327634    0.042306508343
LI   -0.366224097536    0.145389327634    1.276476508343
LI   -0.321344097536    0.218429327634   -1.281063491657
 O    1.600834065536   -0.846873565725    0.005827972701
 C    2.648849528585   -1.613780280893   -0.008912866463
 N    3.876362905503   -1.028399600969    0.016186963399
 H    3.937336540951   -0.010088284051    0.047642678564
 C    5.133746670279   -1.682953762500    0.007356668879
 O    6.187949907379   -1.090639550729    0.033538141765
 N    4.991907339112   -3.077282597902   -0.034516059728
 H    5.868361567264   -3.599912323440   -0.042614598975
 C    3.801343113103   -3.720425263137   -0.061924788307
 H    3.844233226883   -4.810883033356   -0.093235361733
 C    2.603624513397   -3.031552378948   -0.050534751190
 H    1.652320366545   -3.557705460367   -0.072707497865
