26

 N   -4.990434482119    3.076525575781    0.033546920573
 C   -3.799844482119    3.719815575781    0.055806920573
 H   -3.842714482119    4.810375575781    0.083506920573
 C   -5.132304482119    1.682055575781   -0.003233079427
 O   -6.186534482119    1.089615575781   -0.024773079427
 N   -3.874904482119    1.027535575781   -0.012953079427
 H   -3.935904482119    0.009125575781   -0.040793079427
 C   -2.647364482119    1.613055575781    0.007106920573
 O   -1.599344482119    0.846155575781   -0.007633079427
 C   -2.602114482119    3.030955575781    0.043786920573
 H   -1.650794482119    3.557225575781    0.061796920573
 H   -5.866904482119    3.599145575781    0.042036920573
LI   -0.407814482119    0.167395575781    1.276206920573
LI   -0.362934482119    0.240435575781   -1.281333079427
 O    1.647635415638   -0.871630176368    0.005927542402
 C    2.695650878687   -1.638536891536   -0.008813296762
 N    3.923160348268   -1.053172328496    0.016847233733
 H    3.984130641956   -0.034873299497    0.048704653999
 C    5.180543061803   -1.707729855670    0.008117300997
 O    6.234742135556   -1.115431239737    0.034814165258
 N    5.038707977226   -3.102042005369   -0.034321601957
 H    5.915161660715   -3.624673337710   -0.042375269199
 C    3.848147991652   -3.745167875347   -0.062302642247
 H    3.891041023341   -4.835613964883   -0.094013462926
 C    2.650429913629   -3.056292915634   -0.050983496664
 H    1.699129165787   -3.582432473294   -0.073618174068
