26

 N   -5.073615211051    3.120538035760    0.033012494798
 C   -3.883025211051    3.763828035760    0.055272494798
 H   -3.925895211051    4.854388035760    0.082972494798
 C   -5.215485211051    1.726068035760   -0.003767505202
 O   -6.269715211051    1.133628035760   -0.025307505202
 N   -3.958085211051    1.071548035760   -0.013487505202
 H   -4.019085211051    0.053138035760   -0.041327505202
 C   -2.730545211051    1.657068035760    0.006572494798
 O   -1.682525211051    0.890168035760   -0.008167505202
 C   -2.685295211051    3.074968035760    0.043252494798
 H   -1.733975211051    3.601238035760    0.061262494798
 H   -5.950085211051    3.643158035760    0.041502494798
LI   -0.490995211051    0.211408035760    1.275672494798
LI   -0.446115211051    0.284448035760   -1.281867505202
 O    1.741238156076   -0.921143433967    0.006131431569
 C    2.789253619125   -1.688050149135   -0.008609407595
 N    4.016755020992   -1.102717631822    0.018144750804
 H    4.077718476706   -0.084443007243    0.050785682245
 C    5.274135604158   -1.757281832819    0.009610569579
 O    6.328326146912   -1.165014197033    0.037312686239
 N    5.132309253377   -3.151560821363   -0.033932636887
 H    6.008761838764   -3.674195336565   -0.041898783307
 C    3.941757994477   -3.794653309822   -0.063029951525
 H    3.984657036246   -4.885076180931   -0.095521440839
 C    2.744040990444   -3.105774224711   -0.051849077451
 H    1.792747240186   -3.631886901945   -0.075384734942
