26

 N   -5.115205557298    3.142544246491    0.032747579123
 C   -3.924615557298    3.785834246491    0.055007579123
 H   -3.967485557298    4.876394246491    0.082707579123
 C   -5.257075557298    1.748074246491   -0.004032420877
 O   -6.311305557298    1.155634246491   -0.025572420877
 N   -3.999675557298    1.093554246491   -0.013752420877
 H   -4.060675557298    0.075144246491   -0.041592420877
 C   -2.772135557298    1.679074246491    0.006307579123
 O   -1.724115557298    0.912174246491   -0.008432420877
 C   -2.726885557298    3.096974246491    0.042987579123
 H   -1.775565557298    3.623244246491    0.060997579123
 H   -5.991675557298    3.665164246491    0.041237579123
LI   -0.532585557298    0.233414246491    1.275407579123
LI   -0.487705557298    0.306454246491   -1.282132420877
 O    1.788039544514   -0.945900082025    0.006235673364
 C    2.836055007563   -1.712806797193   -0.008505165800
 N    4.063552260442   -1.127490201885    0.018782374021
 H    4.124512227667   -0.109227689508    0.051805436948
 C    5.320931766237   -1.782057710227    0.010343663841
 O    6.375117951348   -1.189805453097    0.038536059019
 N    5.179109891402   -3.176320229889   -0.033738130398
 H    6.055561924075   -3.698956320860   -0.041661591639
 C    3.988563107318   -3.819396138789   -0.063379871248
 H    4.031465233230   -4.909807476893   -0.096252106143
 C    2.790846654174   -3.130515004635   -0.052266434573
 H    1.839556493250   -3.656614330637   -0.076241515584
