26

 N   -5.156795892581    3.164550443724    0.032484145238
 C   -3.966205892581    3.807840443724    0.054744145238
 H   -4.009075892581    4.898400443724    0.082444145238
 C   -5.298665892581    1.770080443724   -0.004295854762
 O   -6.352895892581    1.177640443724   -0.025835854762
 N   -4.041265892581    1.115560443724   -0.014015854762
 H   -4.102265892581    0.097150443724   -0.041855854762
 C   -2.813725892581    1.701080443724    0.006044145238
 O   -1.765705892581    0.934180443724   -0.008695854762
 C   -2.768475892581    3.118980443724    0.042724145238
 H   -1.817155892581    3.645250443724    0.060734145238
 H   -6.033265892581    3.687170443724    0.040974145238
LI   -0.574175892581    0.255420443724    1.275144145238
LI   -0.529295892581    0.328460443724   -1.282395854762
 O    1.834840943916   -0.970656743581    0.006341396951
 C    2.882856406965   -1.737563458749   -0.008399442214
 N    4.110349441197   -1.152262714098    0.019412814516
 H    4.171305878397   -0.134012251361    0.052811801016
 C    5.367727862582   -1.806833509589    0.011068024256
 O    6.421909634843   -1.214596553466    0.039742733226
 N    5.225910529386   -3.201079638768   -0.033543608458
 H    6.102362007351   -3.723717294902   -0.041425078082
 C    4.035368287329   -3.844139046255   -0.063720931415
 H    4.078273545124   -4.934538905001   -0.096967726781
 C    2.837652393455   -3.155255872663   -0.052673836633
 H    1.886365876478   -3.681341910011   -0.077081202826
