26

 N   -5.364747431958    3.274581213242    0.031187989844
 C   -4.174157431958    3.917871213242    0.053447989844
 H   -4.217027431958    5.008431213242    0.081147989844
 C   -5.506617431958    1.880111213242   -0.005592010156
 O   -6.560847431958    1.287671213242   -0.027132010156
 N   -4.249217431958    1.225591213242   -0.015312010156
 H   -4.310217431958    0.207181213242   -0.043152010156
 C   -3.021677431958    1.811111213242    0.004747989844
 O   -1.973657431958    1.044211213242   -0.009992010156
 C   -2.976427431958    3.229011213242    0.041427989844
 H   -2.025107431958    3.755281213242    0.059437989844
 H   -6.241217431958    3.797201213242    0.039677989844
LI   -0.782127431958    0.365451213242    1.273847989844
LI   -0.737247431958    0.438491213242   -1.283692010156
 O    2.068848077965   -1.094440268007    0.006891028910
 C    3.116863541014   -1.861346983176   -0.007849810254
 N    4.344334602047   -1.276124332499    0.022463154978
 H    4.405272877440   -0.257933125019    0.057653721930
 C    5.601707520909   -1.930711250897    0.014565967175
 O    6.655866545241   -1.338549563026    0.045539293389
 N    5.459913718534   -3.324876688429   -0.032570779648
 H    6.336362403323   -3.847522008161   -0.040252126823
 C    4.269395029584   -3.967854847664   -0.065300590318
 H    4.312316546757   -5.058198175705   -0.100332473784
 C    3.071682037260   -3.278961631738   -0.054569669065
 H    2.120414425564   -3.804982234782   -0.081037228683
