26

 N   -5.572698804136    3.384611593622    0.029923966998
 C   -4.382108804136    4.027901593622    0.052183966998
 H   -4.424978804136    5.118461593622    0.079883966998
 C   -5.714568804136    1.990141593622   -0.006856033002
 O   -6.768798804136    1.397701593622   -0.028396033002
 N   -4.457168804136    1.335621593622   -0.016576033002
 H   -4.518168804136    0.317211593622   -0.044416033002
 C   -3.229628804136    1.921141593622    0.003483966998
 O   -2.181608804136    1.154241593622   -0.011256033002
 C   -3.184378804136    3.339041593622    0.040163966998
 H   -2.233058804136    3.865311593622    0.058173966998
 H   -6.449168804136    3.907231593622    0.038413966998
LI   -0.990078804136    0.475481593622    1.272583966998
LI   -0.945198804136    0.548521593622   -1.284956033002
 O    2.302855379212   -1.218224181573    0.007472793418
 C    3.350870842261   -1.985130896742   -0.007268045746
 N    4.578318832141   -1.399984228982    0.025357737784
 H    4.639238340705   -0.381850516041    0.062205267552
 C    5.835686169748   -2.054586731364    0.017874516981
 O    6.889821628336   -1.462498109563    0.050973746288
 N    5.693916906062   -3.448673746744   -0.031597615808
 H    6.570362787465   -3.971326454951   -0.039093879950
 C    4.503422806482   -4.091572927935   -0.066688130024
 H    4.546361323698   -5.181861291138   -0.103370977565
 C    3.305712845266   -3.402669949249   -0.056249626281
 H    2.354464983147   -3.928626939553   -0.084622584598
