26

 N   -5.697469575921    3.450629624082    0.029179505305
 C   -4.506879575921    4.093919624082    0.051439505305
 H   -4.549749575921    5.184479624082    0.079139505305
 C   -5.839339575921    2.056159624082   -0.007600494695
 O   -6.893569575921    1.463719624082   -0.029140494695
 N   -4.581939575921    1.401639624082   -0.017320494695
 H   -4.642939575921    0.383229624082   -0.045160494695
 C   -3.354399575921    1.987159624082    0.002739505305
 O   -2.306379575921    1.220259624082   -0.012000494695
 C   -3.309149575921    3.405059624082    0.039419505305
 H   -2.357829575921    3.931329624082    0.057429505305
 H   -6.573939575921    3.973249624082    0.037669505305
LI   -1.114849575921    0.541499624082    1.271839505305
LI   -1.069969575921    0.614539624082   -1.285700494695
 O    2.443259811482   -1.292494727480    0.007835804138
 C    3.491275274531   -2.059401442648   -0.006905035026
 N    4.718709068223   -1.474299279596    0.027026856968
 H    4.779617142292   -0.456199178206    0.064810113367
 C    5.976073044958   -2.128910868217    0.019777411965
 O    7.030194122293   -1.536864975053    0.054077190462
 N    5.834318817656   -3.522951985791   -0.031013572039
 H    6.710763022461   -4.045608994143   -0.038405316377
 C    4.643839795850   -4.165804937793   -0.067437235256
 H    4.686788746715   -5.256061122218   -0.105052424252
 C    3.446131693970   -3.476896244135   -0.057163867098
 H    2.494895946658   -4.002815996473   -0.086612852395
