26

 N   -5.905420813830    3.560659335176    0.027959848706
 C   -4.714830813830    4.203949335176    0.050219848706
 H   -4.757700813830    5.294509335176    0.077919848706
 C   -6.047290813830    2.166189335176   -0.008820151294
 O   -7.101520813830    1.573749335176   -0.030360151294
 N   -4.789890813830    1.511669335176   -0.018540151294
 H   -4.850890813830    0.493259335176   -0.046380151294
 C   -3.562350813830    2.097189335176    0.001519848706
 O   -2.514330813830    1.330289335176   -0.013220151294
 C   -3.517100813830    3.515089335176    0.038199848706
 H   -2.565780813830    4.041359335176    0.056209848706
 H   -6.781890813830    4.083279335176    0.036449848706
LI   -1.322800813830    0.651529335176    1.270619848706
LI   -1.277920813830    0.724569335176   -1.286920151294
 O    2.677267246999   -1.416279310331    0.008461934893
 C    3.725282710048   -2.183186025500   -0.006278904271
 N    4.952692481374   -1.598156158773    0.029706380092
 H    5.013581357904   -0.580110567886    0.068960730056
 C    6.210050869264   -2.252782449110    0.022824461566
 O    7.264147770846   -1.660805871947    0.059011672934
 N    6.068322001938   -3.646749057432   -0.030039945642
 H    6.944763434477   -4.169413012610   -0.037267371674
 C    4.877868423821   -4.289526953720   -0.068559510688
 H    4.920834994226   -5.379730886279   -0.107640474862
 C    3.680163460525   -3.600608980895   -0.058545759435
 H    2.728948163236   -4.126468271427   -0.089686413994
