26

 N   -5.988601300262    3.604671099427    0.027478859585
 C   -4.798011300262    4.247961099427    0.049738859585
 H   -4.840881300262    5.338521099427    0.077438859585
 C   -6.130471300262    2.210201099427   -0.009301140415
 O   -7.184701300262    1.617761099427   -0.030841140415
 N   -4.873071300262    1.555681099427   -0.019021140415
 H   -4.934071300262    0.537271099427   -0.046861140415
 C   -3.645531300262    2.141201099427    0.001038859585
 O   -2.597511300262    1.374301099427   -0.013701140415
 C   -3.600281300262    3.559101099427    0.037718859585
 H   -2.648961300262    4.085371099427    0.055728859585
 H   -6.865071300262    4.127291099427    0.035968859585
LI   -1.405981300262    0.695541099427    1.270138859585
LI   -1.361101300262    0.768581099427   -1.287401140415
 O    2.770870229936   -1.465793263658    0.008719260714
 C    3.818885692985   -2.232699978827   -0.006021578450
 N    5.046285778580   -1.647698363020    0.030744870710
 H    5.107166959941   -0.629674044917    0.070558862080
 C    6.303641942394   -2.302330380088    0.024002767999
 O    7.357729144053   -1.710380859673    0.060908007178
 N    6.161923275023   -3.696267888324   -0.029650423425
 H    7.038363609127   -4.218934546089   -0.036815339073
 C    4.971479934690   -4.339016468459   -0.068967324286
 H    5.014453598502   -5.429199989439   -0.108605907766
 C    3.773776234554   -3.650094871085   -0.059052338096
 H    2.822569167641   -4.175930544525   -0.090836547906
