26

 N   -6.030191542817    3.626676955717    0.027239756207
 C   -4.839601542817    4.269966955717    0.049499756207
 H   -4.882471542817    5.360526955717    0.077199756207
 C   -6.172061542817    2.232206955717   -0.009540243793
 O   -7.226291542817    1.639766955717   -0.031080243793
 N   -4.914661542817    1.577686955717   -0.019260243793
 H   -4.975661542817    0.559276955717   -0.047100243793
 C   -3.687121542817    2.163206955717    0.000799756207
 O   -2.639101542817    1.396306955717   -0.013940243793
 C   -3.641871542817    3.581106955717    0.037479756207
 H   -2.690551542817    4.107376955717    0.055489756207
 H   -6.906661542817    4.149296955717    0.035729756207
LI   -1.447571542817    0.717546955717    1.269899756207
LI   -1.402691542817    0.790586955717   -1.287640243793
 O    2.817671722067   -1.490550266157    0.008849314806
 C    3.865687185116   -2.257456981326   -0.005891524358
 N    5.093082418766   -1.672469347026    0.031257372407
 H    5.153959753900   -0.654455551433    0.071345356254
 C    6.350437474018   -2.327104194720    0.024583721410
 O    7.404519825660   -1.735168059027    0.061840496869
 N    6.208723911426   -3.721027304239   -0.029455647813
 H    7.085163698950   -4.243695297179   -0.036589959362
 C    5.018285695597   -4.363761378228   -0.069162913247
 H    5.061262910727   -5.453934798729   -0.109074499445
 C    3.820582627787   -3.674837987328   -0.059296281067
 H    2.869379680934   -4.200661974385   -0.091395566629
