26

 N   -6.071781785285    3.648682794789    0.027001554730
 C   -4.881191785285    4.291972794789    0.049261554730
 H   -4.924061785285    5.382532794789    0.076961554730
 C   -6.213651785285    2.254212794789   -0.009778445270
 O   -7.267881785285    1.661772794789   -0.031318445270
 N   -4.956251785285    1.599692794789   -0.019498445270
 H   -5.017251785285    0.581282794789   -0.047338445270
 C   -3.728711785285    2.185212794789    0.000561554730
 O   -2.680691785285    1.418312794789   -0.014178445270
 C   -3.683461785285    3.603112794789    0.037241554730
 H   -2.732141785285    4.129382794789    0.055251554730
 H   -6.948251785285    4.171302794789    0.035491554730
LI   -1.489161785285    0.739552794789    1.269661554730
LI   -1.444281785285    0.812592794789   -1.287878445270
 O    2.864473214284   -1.515307285874    0.008980270800
 C    3.912488677333   -2.282214001042   -0.005760568364
 N    5.139879055157   -1.697240252186    0.031765502220
 H    5.200752546385   -0.679236903307    0.072123700110
 C    6.397233004460   -2.351877908788    0.025159358890
 O    7.451310507893   -1.759955062166    0.062762822890
 N    6.255524547736   -3.745786720463   -0.029260862799
 H    7.131963790550   -4.268456037909   -0.036364992350
 C    5.065091458001   -4.388506389601   -0.069353109757
 H    5.108072226009   -5.478669779851   -0.109533934036
 C    3.867389022748   -3.699581217677   -0.059534164794
 H    2.916190197459   -4.225393599805   -0.091944181285
