26

 N   -6.154962270944    3.692694421353    0.026527783951
 C   -4.964372270944    4.335984421353    0.048787783951
 H   -5.007242270944    5.426544421353    0.076487783951
 C   -6.296832270944    2.298224421353   -0.010252216049
 O   -7.351062270944    1.705784421353   -0.031792216049
 N   -5.039432270944    1.643704421353   -0.019972216049
 H   -5.100432270944    0.625294421353   -0.047812216049
 C   -3.811892270944    2.229224421353    0.000087783951
 O   -2.763872270944    1.462324421353   -0.014652216049
 C   -3.766642270944    3.647124421353    0.036767783951
 H   -2.815322270944    4.173394421353    0.054777783951
 H   -7.031432270944    4.215314421353    0.035017783951
LI   -1.572342270944    0.783564421353    1.269187783951
LI   -1.527462270944    0.856604421353   -1.288352216049
 O    2.958076197994   -1.564821376889    0.009244814962
 C    4.006091661044   -2.331728092057   -0.005496024202
 N    5.233472321587   -1.746781825938    0.032769002631
 H    5.294338135850   -0.728799143707    0.073656601378
 C    6.490824067638   -2.401425035585    0.026295119473
 O    7.544891885164   -1.809528480802    0.064577812587
 N    6.349125820073   -3.795305553824   -0.028871265330
 H    7.225563979379   -4.317977488523   -0.035916262769
 C    5.158702981352   -4.437996716834   -0.069717765075
 H    5.201690855605   -5.528140257099   -0.110426078544
 C    3.961001811167   -3.749068020331   -0.059992248541
 H    3.009811228706   -4.274857436740   -0.093011046659
