26

 N   -6.362913499426    3.802723188561    0.025357904136
 C   -5.172323499426    4.446013188561    0.047617904136
 H   -5.215193499426    5.536573188561    0.075317904136
 C   -6.504783499426    2.408253188561   -0.011422095864
 O   -7.559013499426    1.815813188561   -0.032962095864
 N   -5.247383499426    1.753733188561   -0.021142095864
 H   -5.308383499426    0.735323188561   -0.048982095864
 C   -4.019843499426    2.339253188561   -0.001082095864
 O   -2.971823499426    1.572353188561   -0.015822095864
 C   -3.974593499426    3.757153188561    0.035597904136
 H   -3.023273499426    4.283423188561    0.053607904136
 H   -7.239383499426    4.325343188561    0.033847904136
LI   -1.780293499426    0.893593188561    1.268017904136
LI   -1.735413499426    0.966633188561   -1.289522095864
 O    3.192083642938   -1.688606903625    0.009920722502
 C    4.240099105987   -2.455513618794   -0.004820116662
 N    5.467455502673   -1.870634384404    0.035207237663
 H    5.528302227797   -0.852702056256    0.077357394857
 C    6.724801799202   -2.525291103900    0.029048778173
 O    7.778845515634   -1.933458620451    0.068951353104
 N    6.583128999241   -3.919102642427   -0.027897120010
 H    7.459564487303   -4.441780938123   -0.034801095305
 C    5.392731719865   -4.561724302192   -0.070542426364
 H    5.435737319260   -5.651819439928   -0.112508741473
 C    4.195033704443   -3.872787011764   -0.061039725964
 H    3.243863677587   -4.398520431216   -0.095510398750
