26

 N   -6.404503749109    3.824728891126    0.025126291713
 C   -5.213913749109    4.468018891126    0.047386291713
 H   -5.256783749109    5.558578891126    0.075086291713
 C   -6.546373749109    2.430258891126   -0.011653708287
 O   -7.600603749109    1.837818891126   -0.033193708287
 N   -5.288973749109    1.775738891126   -0.021373708287
 H   -5.349973749109    0.757328891126   -0.049213708287
 C   -4.061433749109    2.361258891126   -0.001313708287
 O   -3.013413749109    1.594358891126   -0.016053708287
 C   -4.016183749109    3.779158891126    0.035366291713
 H   -3.064863749109    4.305428891126    0.053376291713
 H   -7.280973749109    4.347348891126    0.033616291713
LI   -1.821883749109    0.915598891126    1.267786291713
LI   -1.777003749109    0.988638891126   -1.289753708287
 O    3.238885127940   -1.713364059850    0.010058267550
 C    4.286900590990   -2.480270775019   -0.004682571615
 N    5.514252149364   -1.895404661567    0.035683427597
 H    5.575095080383   -0.877482181492    0.078076194696
 C    6.771597367246   -2.550064020097    0.029585578894
 O    7.825636290837   -1.958244069315    0.069799426157
 N    6.629929634786   -3.943862061017   -0.027702266308
 H    7.506364595471   -4.466541598259   -0.034579143313
 C    5.439537446305   -4.586470119943   -0.070693227067
 H    5.482546577237   -5.676555785243   -0.112901276826
 C    4.241840059327   -3.897531147748   -0.061233342490
 H    3.290674127246   -4.423253609001   -0.095983004084
