26

 N   -6.446094000512    3.846734576883    0.024895431360
 C   -5.255504000512    4.490024576883    0.047155431360
 H   -5.298374000512    5.580584576883    0.074855431360
 C   -6.587964000512    2.452264576883   -0.011884568640
 O   -7.642194000512    1.859824576883   -0.033424568640
 N   -5.330564000512    1.797744576883   -0.021604568640
 H   -5.391564000512    0.779334576883   -0.049444568640
 C   -4.103024000512    2.383264576883   -0.001544568640
 O   -3.055004000512    1.616364576883   -0.016284568640
 C   -4.057774000512    3.801164576883    0.035135431360
 H   -3.106454000512    4.327434576883    0.053145431360
 H   -7.322564000512    4.369354576883    0.033385431360
LI   -1.863474000512    0.937604576883    1.267555431360
LI   -1.818594000512    1.010644576883   -1.289984568640
 O    3.285686611222   -1.738121232882    0.010196564668
 C    4.333702074271   -2.505027948051   -0.004544274496
 N    5.561048801579   -1.920174861107    0.036155971920
 H    5.621887947938   -0.902262155639    0.078788198208
 C    6.818392944869   -2.574836837998    0.030117946805
 O    7.872427086763   -1.983029326956    0.070639024019
 N    6.676730270234   -3.968621479889   -0.027507404765
 H    7.553164705941   -4.491302248634   -0.034357535449
 C    5.486343163277   -4.611216037065   -0.070839531150
 H    5.529355819562   -5.701292298715   -0.113286176328
 C    4.288646403609   -3.922275395338   -0.061421906376
 H    3.337484558921   -4.447986978117   -0.096446933747
