26

 N   -6.529274509070    3.890745898281    0.024435909071
 C   -5.338684509070    4.534035898281    0.046695909071
 H   -5.381554509070    5.624595898281    0.074395909071
 C   -6.671144509070    2.496275898281   -0.012344090929
 O   -7.725374509070    1.903835898281   -0.033884090929
 N   -5.413744509070    1.841755898281   -0.022064090929
 H   -5.474744509070    0.823345898281   -0.049904090929
 C   -4.186204509070    2.427275898281   -0.002004090929
 O   -3.138184509070    1.660375898281   -0.016744090929
 C   -4.140954509070    3.845175898281    0.034675909071
 H   -3.189634509070    4.371445898281    0.052685909071
 H   -7.405744509070    4.413365898281    0.032925909071
LI   -1.946654509070    0.981615898281    1.267095909071
LI   -1.901774509070    1.054655898281   -1.290444090929
 O    3.379289572034   -1.787635629062    0.010475357320
 C    4.427305035083   -2.554542344230   -0.004265481844
 N    5.654642125657   -1.969715028505    0.037090403895
 H    5.715473733321   -0.951821653374    0.080192338559
 C    6.911984132373   -2.624382180656    0.031169724863
 O    7.966008747320   -2.032599272161    0.072293445501
 N    6.770331540840   -4.018140318470   -0.027117658764
 H    7.646764933939   -4.540823520405   -0.033915325652
 C    5.579954565226   -4.660708167679   -0.071118995024
 H    5.622974251140   -5.750765827217   -0.114033654597
 C    4.382259056333   -3.971764223382   -0.061784264529
 H    3.431105361385   -4.497454287007   -0.097349432786
