26

 N   -6.695635552863    3.978768342988    0.023525273767
 C   -5.505045552863    4.622058342988    0.045785273767
 H   -5.547915552863    5.712618342988    0.073485273767
 C   -6.837505552863    2.584298342988   -0.013254726233
 O   -7.891735552863    1.991858342988   -0.034794726233
 N   -5.580105552863    1.929778342988   -0.022974726233
 H   -5.641105552863    0.911368342988   -0.050814726233
 C   -4.352565552863    2.515298342988   -0.002914726233
 O   -3.304545552863    1.748398342988   -0.017654726233
 C   -4.307315552863    3.933198342988    0.033765273767
 H   -3.355995552863    4.459468342988    0.051775273767
 H   -7.572105552863    4.501388342988    0.032015273767
LI   -2.113015552863    1.069638342988    1.266185273767
LI   -2.068135552863    1.142678342988   -1.291354726233
 O    3.566495466982   -1.886664619511    0.011041351900
 C    4.614510930031   -2.653571334680   -0.003699487264
 N    5.841828871632   -2.068794446105    0.038918504405
 H    5.902645538654   -1.050938867618    0.082924626206
 C    7.099166658332   -2.723471706986    0.033223715549
 O    8.153172383948   -2.131736909905    0.075507523251
 N    6.957534080892   -4.117177998901   -0.026338079103
 H    7.833965419077   -4.639865950163   -0.033034753875
 C    5.767177218782   -4.759693600776   -0.071627643843
 H    5.810210863798   -5.849714867645   -0.115443230902
 C    4.569484193273   -4.070743195665   -0.062452484780
 H    3.618346679461   -4.596391161373   -0.099057423890
