26

 N   -6.986767482894    4.132807001687    0.021956543118
 C   -5.796177482894    4.776097001687    0.044216543118
 H   -5.839047482894    5.866657001687    0.071916543118
 C   -7.128637482894    2.738337001687   -0.014823456882
 O   -8.182867482894    2.145897001687   -0.036363456882
 N   -5.871237482894    2.083817001687   -0.024543456882
 H   -5.932237482894    1.065407001687   -0.052383456882
 C   -4.643697482894    2.669337001687   -0.004483456882
 O   -3.595677482894    1.902437001687   -0.019223456882
 C   -4.598447482894    4.087237001687    0.032196543118
 H   -3.647127482894    4.613507001687    0.050206543118
 H   -7.863237482894    4.655427001687    0.030446543118
LI   -2.404147482894    1.223677001687    1.264616543118
LI   -2.359267482894    1.296717001687   -1.292923456882
 O    3.894105679746   -2.059965972336    0.012056723546
 C    4.942121142795   -2.826872687504   -0.002684115618
 N    6.169406085103   -2.242180551067    0.041997070286
 H    6.230197113103   -1.224388420190    0.087481283353
 C    7.426736669592   -2.896874751824    0.036671546362
 O    8.480709957284   -2.305220734083    0.080851770699
 N    7.285138522301   -4.290493949675   -0.024973555342
 H    8.161566365488   -4.813189850286   -0.031505137939
 C    6.094816271401   -4.932921775886   -0.072369015275
 H    6.137873946392   -6.022881896341   -0.117657368558
 C    4.897127519978   -4.243960516092   -0.063454711145
 H    3.946017855145   -4.769537753903   -0.101759386548
