26

 N   -7.069948061794    4.176817906297    0.021513703620
 C   -5.879358061794    4.820107906297    0.043773703620
 H   -5.922228061794    5.910667906297    0.071473703620
 C   -7.211818061794    2.782347906297   -0.015266296380
 O   -8.266048061794    2.189907906297   -0.036806296380
 N   -5.954418061794    2.127827906297   -0.024986296380
 H   -6.015418061794    1.109417906297   -0.052826296380
 C   -4.726878061794    2.713347906297   -0.004926296380
 O   -3.678858061794    1.946447906297   -0.019666296380
 C   -4.681628061794    4.131247906297    0.031753703620
 H   -3.730308061794    4.657517906297    0.049763703620
 H   -7.946418061794    4.699437906297    0.030003703620
LI   -2.487328061794    1.267687906297    1.264173703620
LI   -2.442448061794    1.340727906297   -1.293366296380
 O    3.987708570216   -2.109480785303    0.012352198990
 C    5.035724033266   -2.876387500472   -0.002388640174
 N    6.262999687679   -2.291718783487    0.042850633276
 H    6.323783521253   -1.273944169112    0.088734664375
 C    7.520328259236   -2.946417654907    0.037624993703
 O    8.574292440084   -2.354785942064    0.082318191715
 N    7.378739790426   -4.340012794989   -0.024583635445
 H    8.255166659271   -4.862710885436   -0.031070561557
 C    6.188427270940   -4.982416373651   -0.072548732933
 H    6.231491704156   -6.072359601366   -0.118235464606
 C    4.990739721375   -4.293452115207   -0.063704989190
 H    4.039637887587   -4.819009814140   -0.102469437577
