26

 N   -7.153128653861    4.220828749994    0.021073097044
 C   -5.962538653861    4.864118749994    0.043333097044
 H   -6.005408653861    5.954678749994    0.071033097044
 C   -7.294998653861    2.826358749994   -0.015706902956
 O   -8.349228653861    2.233918749994   -0.037246902956
 N   -6.037598653861    2.171838749994   -0.025426902956
 H   -6.098598653861    1.153428749994   -0.053266902956
 C   -4.810058653861    2.757358749994   -0.005366902956
 O   -3.762038653861    1.990458749994   -0.020106902956
 C   -4.764808653861    4.175258749994    0.031313097044
 H   -3.813488653861    4.701528749994    0.049323097044
 H   -8.029598653861    4.743448749994    0.029563097044
LI   -2.570508653861    1.311698749994    1.263733097044
LI   -2.525628653861    1.384738749994   -1.293806902956
 O    4.081311447519   -2.158995659184    0.012649907355
 C    5.129326910568   -2.925902374353   -0.002090931809
 N    6.356593345721   -2.341256732061    0.043693372249
 H    6.417370046667   -1.323499369932    0.089967866882
 C    7.613919924822   -2.995960201239    0.038565279880
 O    8.667875075224   -2.404350458201    0.083759449670
 N    7.472341058180   -4.389531641257   -0.024193692273
 H    8.348766963576   -4.912231886568   -0.030637006853
 C    6.282038194183   -5.031911332293   -0.072715099963
 H    6.325109333635   -6.121837917465   -0.118790889523
 C    5.084351837154   -4.342944119669   -0.063940265766
 H    4.133257773679   -4.868482569479   -0.103153730216
