26

 N   -7.194718954965    4.242834149288    0.020853606773
 C   -6.004128954965    4.886124149288    0.043113606773
 H   -6.046998954965    5.976684149288    0.070813606773
 C   -7.336588954965    2.848364149288   -0.015926393227
 O   -8.390818954965    2.255924149288   -0.037466393227
 N   -6.079188954965    2.193844149288   -0.025646393227
 H   -6.140188954965    1.175434149288   -0.053486393227
 C   -4.851648954965    2.779364149288   -0.005586393227
 O   -3.803628954965    2.012464149288   -0.020326393227
 C   -4.806398954965    4.197264149288    0.031093606773
 H   -3.855078954965    4.723534149288    0.049103606773
 H   -8.071188954965    4.765454149288    0.029343606773
LI   -2.612098954965    1.333704149288    1.263513606773
LI   -2.567218954965    1.406744149288   -1.294026393227
 O    4.128112881101   -2.183753118680    0.012799574555
 C    5.176128344150   -2.950659833848   -0.001941264609
 N    6.403390196271   -2.366025601175    0.044110800656
 H    6.464163354560   -1.348276767375    0.090577121041
 C    7.660715786889   -3.020731342292    0.039030630926
 O    8.714666451366   -2.429132460125    0.084470916661
 N    7.519141691919   -4.414291064743   -0.023998712213
 H    8.395567119686   -4.936992374576   -0.030420601498
 C    6.328843626378   -5.056658945262   -0.072793422452
 H    6.371918098869   -6.146577301829   -0.119060347315
 C    5.131157862019   -4.367690272016   -0.064052441947
 H    4.180067660261   -4.893219204579   -0.103486497781
