26

 N   -7.402670512927    4.352860924874    0.019763918307
 C   -6.212080512927    4.996150924874    0.042023918307
 H   -6.254950512927    6.086710924874    0.069723918307
 C   -7.544540512927    2.958390924874   -0.017016081693
 O   -8.598770512927    2.365950924874   -0.038556081693
 N   -6.287140512927    2.303870924874   -0.026736081693
 H   -6.348140512927    1.285460924874   -0.054576081693
 C   -5.059600512927    2.889390924874   -0.006676081693
 O   -4.011580512927    2.122490924874   -0.021416081693
 C   -5.014350512927    4.307290924874    0.030003918307
 H   -4.063030512927    4.833560924874    0.048013918307
 H   -8.279140512927    4.875480924874    0.028253918307
LI   -2.820050512927    1.443730924874    1.262423918307
LI   -2.775170512927    1.516770924874   -1.295116081693
 O    4.362119996564   -2.307540637039    0.013555673443
 C    5.410135459613   -3.074447352208   -0.001185165721
 N    6.637374674174   -2.489868915763    0.046160312285
 H    6.698130361962   -1.472161766725    0.093553240010
 C    7.894695400547   -3.144585753577    0.041311630567
 O    8.948623936847   -2.553039961810    0.087940770769
 N    7.753144859254   -4.538088185585   -0.023023731001
 H    8.629567939870   -5.060794692183   -0.029342126611
 C    6.562870482233   -5.180398319201   -0.073138620621
 H    6.605961411340   -6.270276440614   -0.120328818688
 C    5.365187643890   -4.491422504191   -0.064561169327
 H    4.414116507450   -5.016904901767   -0.105060784981
