26

 N   -7.444260835264    4.374866236639    0.019547472161
 C   -6.253670835264    5.018156236639    0.041807472161
 H   -6.296540835264    6.108716236639    0.069507472161
 C   -7.586130835264    2.980396236639   -0.017232527839
 O   -8.640360835264    2.387956236639   -0.038772527839
 N   -6.328730835264    2.325876236639   -0.026952527839
 H   -6.389730835264    1.307466236639   -0.054792527839
 C   -5.101190835264    2.911396236639   -0.006892527839
 O   -4.053170835264    2.144496236639   -0.021632527839
 C   -5.055940835264    4.329296236639    0.029787472161
 H   -4.104620835264    4.855566236639    0.047797472161
 H   -8.320730835264    4.897486236639    0.028037472161
LI   -2.861640835264    1.465736236639    1.262207472161
LI   -2.816760835264    1.538776236639   -1.295332527839
 O    4.408921408912   -2.332298184063    0.013708384769
 C    5.456936871961   -3.099204899232   -0.001032454395
 N    6.684171616250   -2.514637376168    0.046562984359
 H    6.744923859384   -1.496938376407    0.094134984948
 C    7.941491385493   -3.169356381834    0.041759039091
 O    8.995415557665   -2.577820969998    0.088617933172
 N    7.799945492452   -4.562847610419   -0.022828719213
 H    8.676368111827   -5.085555131763   -0.029127114084
 C    6.609675790788   -5.205146450970   -0.073198742292
 H    6.652769968356   -6.295016703595   -0.120567369080
 C    5.411993529981   -4.516169239281   -0.064652894109
 H    4.460926156648   -5.041642536239   -0.105358436309
