26

 N   -7.485851161254    4.396871534229    0.019331503764
 C   -6.295261161254    5.040161534229    0.041591503764
 H   -6.338131161254    6.130721534229    0.069291503764
 C   -7.627721161254    3.002401534229   -0.017448496236
 O   -8.681951161254    2.409961534229   -0.038988496236
 N   -6.370321161254    2.347881534229   -0.027168496236
 H   -6.431321161254    1.329471534229   -0.055008496236
 C   -5.142781161254    2.933401534229   -0.007108496236
 O   -4.094761161254    2.166501534229   -0.021848496236
 C   -5.097531161254    4.351301534229    0.029571503764
 H   -4.146211161254    4.877571534229    0.047581503764
 H   -8.362321161254    4.919491534229    0.027821503764
LI   -2.903231161254    1.487741534229    1.261991503764
LI   -2.858351161254    1.560781534229   -1.295548496236
 O    4.455722817607   -2.357055745262    0.013861573842
 C    5.503738280657   -3.123962460430   -0.000879265322
 N    6.730968574243   -2.539405770308    0.046963340558
 H    6.791717389446   -1.521714858501    0.094712412562
 C    7.988287391611   -3.194126927033    0.042203631700
 O    9.042207220493   -2.602601817293    0.089289711783
 N    7.846746125563   -4.587607035468   -0.022633702445
 H    8.723168286419   -5.110315563542   -0.028912320146
 C    6.656481078023   -5.229894666779   -0.073256007510
 H    6.699578489442   -6.319757108912   -0.120801068834
 C    5.458799392140   -4.540916068768   -0.064741409229
 H    4.507735764895   -5.066380332605   -0.105650576460
