26

 N   -7.735393195149    4.528903028737    0.018045292387
 C   -6.544803195149    5.172193028737    0.040305292387
 H   -6.587673195149    6.262753028737    0.068005292387
 C   -7.877263195149    3.134433028737   -0.018734707613
 O   -8.931493195149    2.541993028737   -0.040274707613
 N   -6.619863195149    2.479913028737   -0.028454707613
 H   -6.680863195149    1.461503028737   -0.056294707613
 C   -5.392323195149    3.065433028737   -0.008394707613
 O   -4.344303195149    2.298533028737   -0.023134707613
 C   -5.347073195149    4.483333028737    0.028285292387
 H   -4.395753195149    5.009603028737    0.046295292387
 H   -8.611863195149    5.051523028737    0.026535292387
LI   -3.152773195149    1.619773028737    1.260705292387
LI   -3.107893195149    1.692813028737   -1.296834707613
 O    4.736531191823   -2.505601403488    0.014790307290
 C    5.784546654872   -3.272508118657    0.000049468126
 N    7.011750664135   -2.688014773497    0.049318946644
 H    7.072479266875   -1.670371131170    0.098090233694
 C    8.269063880639   -3.342748492616    0.044814609373
 O    9.322958092977   -2.751283598108    0.093212211219
 N    8.127549922408   -4.736163590176   -0.021463501791
 H    9.003969388974   -5.258877994629   -0.027627948449
 C    6.937312345784   -5.378385687446   -0.073542206345
 H    6.980428847687   -6.468202463985   -0.122105807318
 C    5.739634053585   -4.689398984252   -0.065208010738
 H    4.788592538928   -5.214810435533   -0.107292685635
