26

 N   -7.776983547285    4.550908230418    0.017832454870
 C   -6.586393547285    5.194198230418    0.040092454870
 H   -6.629263547285    6.284758230418    0.067792454870
 C   -7.918853547285    3.156438230418   -0.018947545130
 O   -8.973083547285    2.563998230418   -0.040487545130
 N   -6.661453547285    2.501918230418   -0.028667545130
 H   -6.722453547285    1.483508230418   -0.056507545130
 C   -5.433913547285    3.087438230418   -0.008607545130
 O   -4.385893547285    2.320538230418   -0.023347545130
 C   -5.388663547285    4.505338230418    0.028072454870
 H   -4.437343547285    5.031608230418    0.046082454870
 H   -8.653453547285    5.073528230418    0.026322454870
LI   -3.194363547285    1.641778230418    1.260492454870
LI   -3.149483547285    1.714818230418   -1.297047545130
 O    4.783332574372   -2.530359060597    0.014946627244
 C    5.831348037421   -3.297265775766    0.000205788080
 N    7.058547737145   -2.712782718743    0.049704125918
 H    7.119273030800   -1.695146749850    0.098639368083
 C    8.315860038531   -3.367518475703    0.045240748103
 O    9.369750056006   -2.776063357000    0.093848707607
 N    8.174350554918   -4.760923016673   -0.021268452392
 H    9.050769581836   -5.283638373905   -0.027414587009
 C    6.984117480096   -5.403134472042   -0.073580752023
 H    7.027237110879   -6.492943832733   -0.122307718804
 C    5.786439744070   -4.714146452643   -0.065275491594
 H    4.835401853327   -5.239549327667   -0.107548708730
