26

 N   -7.860164262944    4.594918594202    0.017408029355
 C   -6.669574262944    5.238208594202    0.039668029355
 H   -6.712444262944    6.328768594202    0.067368029355
 C   -8.002034262944    3.200448594202   -0.019371970645
 O   -9.056264262944    2.608008594202   -0.040911970645
 N   -6.744634262944    2.545928594202   -0.029091970645
 H   -6.805634262944    1.527518594202   -0.056931970645
 C   -5.517094262944    3.131448594202   -0.009031970645
 O   -4.469074262944    2.364548594202   -0.023771970645
 C   -5.471844262944    4.549348594202    0.027648029355
 H   -4.520524262944    5.075618594202    0.045658029355
 H   -8.736634262944    5.117538594202    0.025898029355
LI   -3.277544262944    1.685788594202    1.260068029355
LI   -3.232664262944    1.758828594202   -1.297471970645
 O    4.876935328083   -2.579874414391    0.015260516671
 C    5.924950791132   -3.346781129559    0.000519677507
 N    7.152141933677   -2.762318423785    0.050468427421
 H    7.212860660576   -1.744697630885    0.099726345178
 C    8.409452420492   -3.417058209884    0.046085660711
 O    9.463334112585   -2.825622425767    0.095107619433
 N    8.267951819689   -4.810441870261   -0.020878340571
 H    9.144369975288   -5.333159110911   -0.026988435827
 C    7.077727682007   -5.452632276001   -0.073650372501
 H    7.120853524687   -6.542426967920   -0.122698855233
 C    5.880051050139   -4.763641653136   -0.065402058633
 H    4.929020353886   -5.289027564238   -0.108046340778
