26

 N   -7.901754626482    4.616923756539    0.017196428138
 C   -6.711164626482    5.260213756539    0.039456428138
 H   -6.754034626482    6.350773756539    0.067156428138
 C   -8.043624626482    3.222453756539   -0.019583571862
 O   -9.097854626482    2.630013756539   -0.041123571862
 N   -6.786224626482    2.567933756539   -0.029303571862
 H   -6.847224626482    1.549523756539   -0.057143571862
 C   -5.558684626482    3.153453756539   -0.009243571862
 O   -4.510664626482    2.386553756539   -0.023983571862
 C   -5.513434626482    4.571353756539    0.027436428138
 H   -4.562114626482    5.097623756539    0.045446428138
 H   -8.778224626482    5.139543756539    0.025686428138
LI   -3.319134626482    1.707793756539    1.259856428138
LI   -3.274254626482    1.780833756539   -1.297683571862
 O    4.923736699230   -2.604632110843    0.015418072925
 C    5.971752162279   -3.371538826012    0.000677233760
 N    7.198939057323   -2.787086184641    0.050847613730
 H    7.259654526577   -1.769472895328    0.100264307342
 C    8.456248644662   -3.441827962335    0.046504512504
 O    9.510126206289   -2.850401738296    0.095730183839
 N    8.314752451950   -4.835201297345   -0.020683278286
 H    9.191170175857   -5.357919468782   -0.026775640036
 C    7.124532749497   -5.477381293993   -0.073681526339
 H    7.167661675112   -6.567168732041   -0.122888214392
 C    5.926856665601   -4.788389383699   -0.065461233627
 H    4.975829539832   -5.313766906036   -0.108288102224
