26

 N   -8.068116118803    4.704944278204    0.016353952366
 C   -6.877526118803    5.348234278204    0.038613952366
 H   -6.920396118803    6.438794278204    0.066313952366
 C   -8.209986118803    3.310474278204   -0.020426047634
 O   -9.264216118803    2.718034278204   -0.041966047634
 N   -6.952586118803    2.655954278204   -0.030146047634
 H   -7.013586118803    1.637544278204   -0.057986047634
 C   -5.725046118803    3.241474278204   -0.010086047634
 O   -4.677026118803    2.474574278204   -0.024826047634
 C   -5.679796118803    4.659374278204    0.026593952366
 H   -4.728476118803    5.185644278204    0.044603952366
 H   -8.944586118803    5.227564278204    0.024843952366
LI   -3.485496118803    1.795814278204    1.259013952366
LI   -3.440616118803    1.868854278204   -1.298526047634
 O    5.110942145650   -2.703663024333    0.016052227036
 C    6.158957608699   -3.470569739502    0.001311387872
 N    7.386127722209   -2.886156629253    0.052345312632
 H    7.446830332467   -1.868572803428    0.102380649419
 C    8.643433763376   -3.540906223586    0.048156760982
 O    9.697295018190   -2.949517540050    0.098176164084
 N    8.501954980187   -4.934239007578   -0.019902988200
 H    9.378371003517   -5.456960831031   -0.025926254552
 C    7.311752795527   -5.576378123517   -0.073782649596
 H    7.354893898796   -6.666137071884   -0.123605758319
 C    6.114078876029   -4.887381156906   -0.065671536645
 H    5.163065853075   -5.412725732782   -0.109209822888
