22

 H    3.376722890532   -0.748563922122   -0.787966853946
 H    2.543422890532   -1.649453922122   -2.085206853946
 H    2.328892890532   -2.159203922122   -0.362946853946
 C    2.469072890532   -1.308853922122   -1.041516853946
 S    1.020082890532   -0.185513922122   -0.971316853946
 S    0.883712890532    0.154236077878    1.106713146054
 C    2.345082890532    1.230676077878    1.373993146054
 H    3.259922890532    0.640926077878    1.241533146054
 H    2.290112890532    1.567486077878    2.419993146054
 H    2.325252890532    2.086356077878    0.687303146054
NA   -1.295597109468    2.069116077878    1.197743146054
NA   -1.187057109468   -2.028323922122   -1.374316853946
 S   -0.412837851810    0.175537101021    1.014504475395
 S   -0.276467988409   -0.164212558659   -1.063523443090
 C   -1.861827322311    1.298872478093    1.084704887769
 H   -2.769477589773    0.738572473474    0.831161989623
 H   -1.936177657734    1.639464966012    2.128392063936
 H   -1.721651119577    2.149219492077    0.406140080257
 C   -1.737836696484   -1.240651429008   -1.330802356326
 H   -2.652672293362   -0.650908005484   -1.198337585554
 H   -1.682867463427   -1.577461916632   -2.376799080242
 H   -1.718003823516   -2.096337048783   -0.644113266445
