22

 H    3.416790003585   -0.749222184444   -0.785117343232
 H    2.583490003585   -1.650112184444   -2.082357343232
 H    2.368960003585   -2.159862184444   -0.360097343232
 C    2.509140003585   -1.309512184444   -1.038667343232
 S    1.060150003585   -0.186172184444   -0.968467343232
 S    0.923780003585    0.153577815556    1.109562656768
 C    2.385150003585    1.230017815556    1.376842656768
 H    3.299990003585    0.640267815556    1.244382656768
 H    2.330180003585    1.566827815556    2.422842656768
 H    2.365320003585    2.085697815556    0.690152656768
NA   -1.255529996415    2.068457815556    1.200592656768
NA   -1.146989996415   -2.028982184444   -1.371467343232
 S   -0.472505411245    0.176517378940    1.010261011443
 S   -0.336135547844   -0.163232280740   -1.067766907042
 C   -1.921494881746    1.299852756012    1.080461423817
 H   -2.829145149208    0.739552751393    0.826918525671
 H   -1.995845217169    1.640445243932    2.124148599984
 H   -1.781318679012    2.150199769997    0.401896616305
 C   -1.797504255919   -1.239671151089   -1.335045820278
 H   -2.712339852797   -0.649927727565   -1.202581049506
 H   -1.742535022862   -1.576481638712   -2.381042544194
 H   -1.777671382950   -2.095356770863   -0.648356730397
