22

 H    3.456857116638   -0.749880446766   -0.782267832517
 H    2.623557116638   -1.650770446766   -2.079507832517
 H    2.409027116638   -2.160520446766   -0.357247832517
 C    2.549207116638   -1.310170446766   -1.035817832517
 S    1.100217116638   -0.186830446766   -0.965617832517
 S    0.963847116638    0.152919553234    1.112412167483
 C    2.425217116638    1.229359553234    1.379692167483
 H    3.340057116638    0.639609553234    1.247232167483
 H    2.370247116638    1.566169553234    2.425692167483
 H    2.405387116638    2.085039553234    0.693002167483
NA   -1.215462883362    2.067799553234    1.203442167483
NA   -1.106922883362   -2.029640446766   -1.368617832517
 S   -0.532172970680    0.177497656860    1.006017547491
 S   -0.395803107279   -0.162252002820   -1.072010370994
 C   -1.981162441181    1.300833033932    1.076217959865
 H   -2.888812708643    0.740533029313    0.822675061719
 H   -2.055512776604    1.641425521852    2.119905136032
 H   -1.840986238447    2.151180047917    0.397653152353
 C   -1.857171815354   -1.238690873169   -1.339289284230
 H   -2.772007412232   -0.648947449645   -1.206824513457
 H   -1.802202582297   -1.575501360793   -2.385286008146
 H   -1.837338942385   -2.094376492944   -0.652600194349
