22

 H    3.536991342743   -0.751196971411   -0.776568811089
 H    2.703691342743   -1.652086971411   -2.073808811089
 H    2.489161342743   -2.161836971411   -0.351548811089
 C    2.629341342743   -1.311486971411   -1.030118811089
 S    1.180351342743   -0.188146971411   -0.959918811089
 S    1.043981342743    0.151603028589    1.118111188911
 C    2.505351342743    1.228043028589    1.385391188911
 H    3.420191342743    0.638293028589    1.252931188911
 H    2.450381342743    1.564853028589    2.431391188911
 H    2.485521342743    2.083723028589    0.698701188911
NA   -1.135328657257    2.066483028589    1.209141188911
NA   -1.026788657257   -2.030956971411   -1.362918811089
 S   -0.651508089550    0.179458212699    0.997530619587
 S   -0.515138226149   -0.160291446981   -1.080497298898
 C   -2.100497560051    1.302793589771    1.067731031961
 H   -3.008147827513    0.742493585152    0.814188133815
 H   -2.174847895474    1.643386077691    2.111418208128
 H   -1.960321357316    2.153140603756    0.389166224449
 C   -1.976506934224   -1.236730317330   -1.347776212133
 H   -2.891342531102   -0.646986893806   -1.215311441361
 H   -1.921537701167   -1.573540804953   -2.393772936050
 H   -1.956674061255   -2.092415937104   -0.661087122253
