22

 H    3.577058455796   -0.751855233733   -0.773719300375
 H    2.743758455796   -1.652745233733   -2.070959300375
 H    2.529228455796   -2.162495233733   -0.348699300375
 C    2.669408455796   -1.312145233733   -1.027269300375
 S    1.220418455796   -0.188805233733   -0.957069300375
 S    1.084048455796    0.150944766267    1.120960699625
 C    2.545418455796    1.227384766267    1.388240699625
 H    3.460258455796    0.637634766267    1.255780699625
 H    2.490448455796    1.564194766267    2.434240699625
 H    2.525588455796    2.083064766267    0.701550699625
NA   -1.095261544204    2.065824766267    1.211990699625
NA   -0.986721544204   -2.031615233733   -1.360069300375
 S   -0.711175648985    0.180438490619    0.993287155635
 S   -0.574805785584   -0.159311169061   -1.084740762850
 C   -2.160165119486    1.303773867691    1.063487568009
 H   -3.067815386948    0.743473863072    0.809944669864
 H   -2.234515454909    1.644366355611    2.107174744176
 H   -2.019988916751    2.154120881676    0.384922760497
 C   -2.036174493659   -1.235750039410   -1.352019676085
 H   -2.951010090537   -0.646006615886   -1.219554905313
 H   -1.981205260602   -1.572560527034   -2.398016400002
 H   -2.016341620690   -2.091435659185   -0.665330586205
