22

 H    3.977729586325   -0.758437856954   -0.745224193233
 H    3.144429586325   -1.659327856954   -2.042464193233
 H    2.929899586325   -2.169077856954   -0.320204193233
 C    3.070079586325   -1.318727856954   -0.998774193233
 S    1.621089586325   -0.195387856954   -0.928574193233
 S    1.484719586325    0.144362143046    1.149455806767
 C    2.946089586325    1.220802143046    1.416735806767
 H    3.860929586325    0.631052143046    1.284275806767
 H    2.891119586325    1.557612143046    2.462735806767
 H    2.926259586325    2.076482143046    0.730045806767
NA   -0.694590413675    2.059242143046    1.240485806767
NA   -0.586050413675   -2.038197856954   -1.331574193233
 S   -1.307851243335    0.190241269815    0.950852516115
 S   -1.171481379934   -0.149508389865   -1.127175402370
 C   -2.756840713835    1.313576646887    1.021052928490
 H   -3.664490981297    0.753276642268    0.767510030344
 H   -2.831191049258    1.654169134807    2.064740104657
 H   -2.616664511101    2.163923660872    0.342488120978
 C   -2.632850088009   -1.225947260214   -1.394454315605
 H   -3.547685684886   -0.636203836690   -1.261989544833
 H   -2.577880854951   -1.562757747837   -2.440451039521
 H   -2.613017215040   -2.081632879988   -0.707765225724
