22

 H    4.097930925484   -0.760412643920   -0.736675661091
 H    3.264630925484   -1.661302643920   -2.033915661091
 H    3.050100925484   -2.171052643920   -0.311655661091
 C    3.190280925484   -1.320702643920   -0.990225661091
 S    1.741290925484   -0.197362643920   -0.920025661091
 S    1.604920925484    0.142387356080    1.158004338909
 C    3.066290925484    1.218827356080    1.425284338909
 H    3.981130925484    0.629077356080    1.292824338909
 H    3.011320925484    1.555637356080    2.471284338909
 H    3.046460925484    2.074507356080    0.738594338909
NA   -0.574389074516    2.057267356080    1.249034338909
NA   -0.465849074516   -2.040172643920   -1.323025661091
 S   -1.486853921640    0.193182103574    0.938122124260
 S   -1.350484058238   -0.146567556106   -1.139905794225
 C   -2.935843392140    1.316517480646    1.008322536634
 H   -3.843493659602    0.756217476027    0.754779638488
 H   -3.010193727563    1.657109968566    2.052009712801
 H   -2.795667189406    2.166864494631    0.329757729122
 C   -2.811852766314   -1.223006426455   -1.407184707461
 H   -3.726688363191   -0.633263002931   -1.274719936689
 H   -2.756883533256   -1.559816914078   -2.453181431377
 H   -2.792019893345   -2.078692046229   -0.720495617580
