22

 H    4.178065151590   -0.761729168565   -0.730976639662
 H    3.344765151590   -1.662619168565   -2.028216639662
 H    3.130235151590   -2.172369168565   -0.305956639662
 C    3.270415151590   -1.322019168565   -0.984526639662
 S    1.821425151590   -0.198679168565   -0.914326639662
 S    1.685055151590    0.141070831435    1.163703360338
 C    3.146425151590    1.217510831435    1.430983360338
 H    4.061265151590    0.627760831435    1.298523360338
 H    3.091455151590    1.554320831435    2.476983360338
 H    3.126595151590    2.073190831435    0.744293360338
NA   -0.494254848410    2.055950831435    1.254733360338
NA   -0.385714848410   -2.041489168565   -1.317326639662
 S   -1.606189040510    0.195142659413    0.929635196356
 S   -1.469819177108   -0.144607000267   -1.148392722129
 C   -3.055178511010    1.318478036485    0.999835608730
 H   -3.962828778472    0.758178031866    0.746292710584
 H   -3.129528846433    1.659070524405    2.043522784897
 H   -2.915002308276    2.168825050470    0.321270801218
 C   -2.931187885184   -1.221045870616   -1.415671635365
 H   -3.846023482061   -0.631302447092   -1.283206864593
 H   -2.876218652126   -1.557856358239   -2.461668359281
 H   -2.911355012215   -2.076731490390   -0.728982545484
