22

 H    4.618803395172   -0.768970054108   -0.699632021806
 H    3.785503395172   -1.669860054108   -1.996872021806
 H    3.570973395172   -2.179610054108   -0.274612021806
 C    3.711153395172   -1.329260054108   -0.953182021806
 S    2.262163395172   -0.205920054108   -0.882982021806
 S    2.125793395172    0.133829945892    1.195047978194
 C    3.587163395172    1.210269945892    1.462327978194
 H    4.502003395172    0.620519945892    1.329867978194
 H    3.532193395172    1.547079945892    2.508327978194
 H    3.567333395172    2.065949945892    0.775637978194
NA   -0.053516604828    2.048709945892    1.286077978194
NA    0.055023395172   -2.048730054108   -1.285982021806
 S   -2.262532194294    0.205925716529    0.882957092884
 S   -2.126162330893   -0.133823943151   -1.195070825601
 C   -3.711521664795    1.329261093601    0.953157505259
 H   -4.619171932257    0.768961088982    0.699614607113
 H   -3.785872000218    1.669853581521    1.996844681425
 H   -3.571345462060    2.179608107586    0.274592697746
 C   -3.587531038968   -1.210262813500   -1.462349738836
 H   -4.502366635846   -0.620519389976   -1.329884968064
 H   -3.532561805911   -1.547073301123   -2.508346462752
 H   -3.567698165999   -2.065948433274   -0.775660648955
