22

 H    4.779071847383   -0.771603103397   -0.688233978950
 H    3.945771847383   -1.672493103397   -1.985473978950
 H    3.731241847383   -2.182243103397   -0.263213978950
 C    3.871421847383   -1.331893103397   -0.941783978950
 S    2.422431847383   -0.208553103397   -0.871583978950
 S    2.286061847383    0.131196896603    1.206446021050
 C    3.747431847383    1.207636896603    1.473726021050
 H    4.662271847383    0.617886896603    1.341266021050
 H    3.692461847383    1.544446896603    2.519726021050
 H    3.727601847383    2.063316896603    0.787036021050
NA    0.106751847383    2.046076896603    1.297476021050
NA    0.215291847383   -2.051363103397   -1.274583978950
 S   -2.501202432034    0.209846828208    0.865983237076
 S   -2.364832568633   -0.129902831472   -1.212044681409
 C   -3.950191902535    1.333182205280    0.936183649451
 H   -4.857842169996    0.772882200661    0.682640751305
 H   -4.024542237958    1.673774693200    1.979870825618
 H   -3.810015699800    2.183529219265    0.257618841939
 C   -3.826201276708   -1.206341701821   -1.479323594644
 H   -4.741036873586   -0.616598278297   -1.346858823872
 H   -3.771232043651   -1.543152189445   -2.525320318560
 H   -3.806368403739   -2.062027321596   -0.792634504763
