22

 H    4.819138960436   -0.772261365719   -0.685384468235
 H    3.985838960436   -1.673151365719   -1.982624468235
 H    3.771308960436   -2.182901365719   -0.260364468235
 C    3.911488960436   -1.332551365719   -0.938934468235
 S    2.462498960436   -0.209211365719   -0.868734468235
 S    2.326128960436    0.130538634281    1.209295531765
 C    3.787498960436    1.206978634281    1.476575531765
 H    4.702338960436    0.617228634281    1.344115531765
 H    3.732528960436    1.543788634281    2.522575531765
 H    3.767668960436    2.062658634281    0.789885531765
NA    0.146818960436    2.045418634281    1.300325531765
NA    0.255358960436   -2.052021365719   -1.271734468235
 S   -2.560869991469    0.210827106128    0.861739773125
 S   -2.424500128068   -0.128922553553   -1.216288145360
 C   -4.009859461970    1.334162483200    0.931940185499
 H   -4.917509729431    0.773862478580    0.678397287353
 H   -4.084209797393    1.674754971119    1.975627361666
 H   -3.869683259235    2.184509497184    0.253375377987
 C   -3.885868836143   -1.205361423902   -1.483567058596
 H   -4.800704433021   -0.615618000377   -1.351102287824
 H   -3.830899603086   -1.542171911525   -2.529563782512
 H   -3.866035963174   -2.061047043676   -0.796877968715
