22

 H    4.979407412648   -0.774894415007   -0.673986425379
 H    4.146107412648   -1.675784415007   -1.971226425379
 H    3.931577412648   -2.185534415007   -0.248966425379
 C    4.071757412648   -1.335184415007   -0.927536425379
 S    2.622767412648   -0.211844415007   -0.857336425379
 S    2.486397412648    0.127905584993    1.220693574621
 C    3.947767412648    1.204345584993    1.487973574621
 H    4.862607412648    0.614595584993    1.355513574621
 H    3.892797412648    1.541155584993    2.533973574621
 H    3.927937412648    2.060025584993    0.801283574621
NA    0.307087412648    2.042785584993    1.311723574621
NA    0.415627412648   -2.054654415007   -1.260336425379
 S   -2.799540229209    0.214748217806    0.844765917317
 S   -2.663170365808   -0.125001441874   -1.233262001168
 C   -4.248529699709    1.338083594878    0.914966329691
 H   -5.156179967171    0.777783590259    0.661423431545
 H   -4.322880035132    1.678676082798    1.958653505858
 H   -4.108353496975    2.188430608863    0.236401522179
 C   -4.124539073883   -1.201440312223   -1.500540914404
 H   -5.039374670761   -0.611696888699   -1.368076143631
 H   -4.069569840825   -1.538250799846   -2.546537638320
 H   -4.104706200914   -2.057125931997   -0.813851824523
