22

 H    5.059541638754   -0.776210939651   -0.668287403950
 H    4.226241638754   -1.677100939651   -1.965527403950
 H    4.011711638754   -2.186850939651   -0.243267403950
 C    4.151891638754   -1.336500939651   -0.921837403950
 S    2.702901638754   -0.213160939651   -0.851637403950
 S    2.566531638754    0.126589060349    1.226392596050
 C    4.027901638754    1.203029060349    1.493672596050
 H    4.942741638754    0.613279060349    1.361212596050
 H    3.972931638754    1.539839060349    2.539672596050
 H    4.008071638754    2.058709060349    0.806982596050
NA    0.387221638754    2.041469060349    1.317422596050
NA    0.495761638754   -2.055970939651   -1.254637403950
 S   -2.918875348079    0.216708773645    0.836278989413
 S   -2.782505484678   -0.123040886035   -1.241748929072
 C   -4.367864818579    1.340044150717    0.906479401787
 H   -5.275515086041    0.779744146098    0.652936503641
 H   -4.442215154002    1.680636638637    1.950166577954
 H   -4.227688615845    2.190391164702    0.227914594275
 C   -4.243874192753   -1.199479756384   -1.509027842307
 H   -5.158709789630   -0.609736332860   -1.376563071535
 H   -4.188904959695   -1.536290244007   -2.555024566224
 H   -4.224041319784   -2.055165376158   -0.822338752427
