22

 H    5.139675864860   -0.777527464296   -0.662588382522
 H    4.306375864860   -1.678417464296   -1.959828382522
 H    4.091845864860   -2.188167464296   -0.237568382522
 C    4.232025864860   -1.337817464296   -0.916138382522
 S    2.783035864860   -0.214477464296   -0.845938382522
 S    2.646665864860    0.125272535704    1.232091617478
 C    4.108035864860    1.201712535704    1.499371617478
 H    5.022875864860    0.611962535704    1.366911617478
 H    4.053065864860    1.538522535704    2.545371617478
 H    4.088205864860    2.057392535704    0.812681617478
NA    0.467355864860    2.040152535704    1.323121617478
NA    0.575895864860   -2.057287464296   -1.248938382522
 S   -3.038210466949    0.218669329485    0.827792061509
 S   -2.901840603547   -0.121080330196   -1.250235856976
 C   -4.487199937449    1.342004706557    0.897992473883
 H   -5.394850204911    0.781704701938    0.644449575738
 H   -4.561550272872    1.682597194476    1.941679650050
 H   -4.347023734715    2.192351720541    0.219427666371
 C   -4.363209311623   -1.197519200544   -1.517514770211
 H   -5.278044908500   -0.607775777020   -1.385049999439
 H   -4.308240078565   -1.534329688168   -2.563511494128
 H   -4.343376438654   -2.053204820319   -0.830825680331
