22

 H    5.179742977912   -0.778185726618   -0.659738871808
 H    4.346442977912   -1.679075726618   -1.956978871808
 H    4.131912977912   -2.188825726618   -0.234718871808
 C    4.272092977912   -1.338475726618   -0.913288871808
 S    2.823102977912   -0.215135726618   -0.843088871808
 S    2.686732977912    0.124614273382    1.234941128192
 C    4.148102977912    1.201054273382    1.502221128192
 H    5.062942977912    0.611304273382    1.369761128192
 H    4.093132977912    1.537864273382    2.548221128192
 H    4.128272977912    2.056734273382    0.815531128192
NA    0.507422977912    2.039494273382    1.325971128192
NA    0.615962977912   -2.057945726618   -1.246088871808
 S   -3.097878026384    0.219649607404    0.823548597557
 S   -2.961508162982   -0.120100052276   -1.254479320928
 C   -4.546867496884    1.342984984476    0.893749009931
 H   -5.454517764346    0.782684979857    0.640206111786
 H   -4.621217832307    1.683577472396    1.937436186098
 H   -4.406691294150    2.193331998461    0.215184202419
 C   -4.422876871058   -1.196538922625   -1.521758234163
 H   -5.337712467935   -0.606795499101   -1.389293463391
 H   -4.367907638000   -1.533349410248   -2.567754958080
 H   -4.403043998089   -2.052224542399   -0.835069144283
