22

 H    5.299944317071   -0.780160513584   -0.651190339665
 H    4.466644317071   -1.681050513584   -1.948430339665
 H    4.252114317071   -2.190800513584   -0.226170339665
 C    4.392294317071   -1.340450513584   -0.904740339665
 S    2.943304317071   -0.217110513584   -0.834540339665
 S    2.806934317071    0.122639486416    1.243489660335
 C    4.268304317071    1.199079486416    1.510769660335
 H    5.183144317071    0.609329486416    1.378309660335
 H    4.213334317071    1.535889486416    2.556769660335
 H    4.248474317071    2.054759486416    0.824079660335
NA    0.627624317071    2.037519486416    1.334519660335
NA    0.736164317071   -2.059920513584   -1.237540339665
 S   -3.276880704689    0.222590441163    0.810818205701
 S   -3.140510841287   -0.117159218517   -1.267209712784
 C   -4.725870175189    1.345925818235    0.881018618076
 H   -5.633520442651    0.785625813616    0.627475719930
 H   -4.800220510612    1.686518306155    1.924705794242
 H   -4.585693972455    2.196272832220    0.202453810563
 C   -4.601879549363   -1.193598088866   -1.534488626019
 H   -5.516715146240   -0.603854665342   -1.402023855247
 H   -4.546910316305   -1.530408576489   -2.580485349936
 H   -4.582046676394   -2.049283708640   -0.847799536139
