22

 H    5.340011430124   -0.780818775906   -0.648340828951
 H    4.506711430124   -1.681708775906   -1.945580828951
 H    4.292181430124   -2.191458775906   -0.223320828951
 C    4.432361430124   -1.341108775906   -0.901890828951
 S    2.983371430124   -0.217768775906   -0.831690828951
 S    2.847001430124    0.121981224094    1.246339171049
 C    4.308371430124    1.198421224094    1.513619171049
 H    5.223211430124    0.608671224094    1.381159171049
 H    4.253401430124    1.535231224094    2.559619171049
 H    4.288541430124    2.054101224094    0.826929171049
NA    0.667691430124    2.036861224094    1.337369171049
NA    0.776231430124   -2.060578775906   -1.234690828951
 S   -3.336548264124    0.223570719083    0.806574741749
 S   -3.200178400722   -0.116178940597   -1.271453176736
 C   -4.785537734624    1.346906096155    0.876775154124
 H   -5.693188002086    0.786606091536    0.623232255978
 H   -4.859888070047    1.687498584075    1.920462330290
 H   -4.645361531890    2.197253110140    0.198210346611
 C   -4.661547108798   -1.192617810946   -1.538732089971
 H   -5.576382705675   -0.602874387422   -1.406267319199
 H   -4.606577875740   -1.529428298570   -2.584728813888
 H   -4.641714235829   -2.048303430721   -0.852043000090
