22

 H    5.420145656230   -0.782135300551   -0.642641807523
 H    4.586845656230   -1.683025300551   -1.939881807523
 H    4.372315656230   -2.192775300551   -0.217621807523
 C    4.512495656230   -1.342425300551   -0.896191807523
 S    3.063505656230   -0.219085300551   -0.825991807523
 S    2.927135656230    0.120664699449    1.252038192477
 C    4.388505656230    1.197104699449    1.519318192477
 H    5.303345656230    0.607354699449    1.386858192477
 H    4.333535656230    1.533914699449    2.565318192477
 H    4.368675656230    2.052784699449    0.832628192477
NA    0.747825656230    2.035544699449    1.343068192477
NA    0.856365656230   -2.061895300551   -1.228991807523
 S   -3.455883382994    0.225531274922    0.798087813845
 S   -3.319513519592   -0.114218384758   -1.279940104640
 C   -4.904872853494    1.348866651994    0.868288226220
 H   -5.812523120956    0.788566647375    0.614745328074
 H   -4.979223188917    1.689459139914    1.911975402387
 H   -4.764696650760    2.199213665979    0.189723418707
 C   -4.780882227668   -1.190657255107   -1.547219017875
 H   -5.695717824545   -0.600913831583   -1.414754247103
 H   -4.725912994610   -1.527467742731   -2.593215741791
 H   -4.761049354699   -2.046342874881   -0.860529927994
