22

 H    5.580414108441   -0.784768349839   -0.631243764666
 H    4.747114108441   -1.685658349839   -1.928483764666
 H    4.532584108441   -2.195408349839   -0.206223764666
 C    4.672764108441   -1.345058349839   -0.884793764666
 S    3.223774108441   -0.221718349839   -0.814593764666
 S    3.087404108441    0.118031650161    1.263436235334
 C    4.548774108441    1.194471650161    1.530716235334
 H    5.463614108441    0.604721650161    1.398256235334
 H    4.493804108441    1.531281650161    2.576716235334
 H    4.528944108441    2.050151650161    0.844026235334
NA    0.908094108441    2.032911650161    1.354466235334
NA    1.016634108441   -2.064528349839   -1.217593764666
 S   -3.694553620733    0.229452386601    0.781113958037
 S   -3.558183757332   -0.110297273080   -1.296913960448
 C   -5.143543091234    1.352787763673    0.851314370412
 H   -6.051193358696    0.792487759053    0.597771472266
 H   -5.217893426657    1.693380251592    1.895001546579
 H   -5.003366888500    2.203134777657    0.172749562900
 C   -5.019552465407   -1.186736143428   -1.564192873683
 H   -5.934388062285   -0.596992719904   -1.431728102911
 H   -4.964583232350   -1.523546631052   -2.610189597599
 H   -4.999719592438   -2.042421763203   -0.877503783802
