22

 H    5.700615447600   -0.786743136806   -0.622695232524
 H    4.867315447600   -1.687633136806   -1.919935232524
 H    4.652785447600   -2.197383136806   -0.197675232524
 C    4.792965447600   -1.347033136806   -0.876245232524
 S    3.343975447600   -0.223693136806   -0.806045232524
 S    3.207605447600    0.116056863194    1.271984767476
 C    4.668975447600    1.192496863194    1.539264767476
 H    5.583815447600    0.602746863194    1.406804767476
 H    4.614005447600    1.529306863194    2.585264767476
 H    4.649145447600    2.048176863194    0.852574767476
NA    1.028295447600    2.030936863194    1.363014767476
NA    1.136835447600   -2.066503136806   -1.209045232524
 S   -3.873556299038    0.232393220360    0.768383566182
 S   -3.737186435637   -0.107356439321   -1.309644352303
 C   -5.322545769539    1.355728597432    0.838583978556
 H   -6.230196037001    0.795428592812    0.585041080410
 H   -5.396896104962    1.696321085351    1.882271154723
 H   -5.182369566804    2.206075611416    0.160019171044
 C   -5.198555143712   -1.183795309670   -1.576923265539
 H   -6.113390740590   -0.594051886146   -1.444458494767
 H   -5.143585910655   -1.520605797293   -2.622919989455
 H   -5.178722270743   -2.039480929444   -0.890234175658
