22

 H    5.740682560653   -0.787401399128   -0.619845721809
 H    4.907382560653   -1.688291399128   -1.917085721809
 H    4.692852560653   -2.198041399128   -0.194825721809
 C    4.833032560653   -1.347691399128   -0.873395721809
 S    3.384042560653   -0.224351399128   -0.803195721809
 S    3.247672560653    0.115398600872    1.274834278191
 C    4.709042560653    1.191838600872    1.542114278191
 H    5.623882560653    0.602088600872    1.409654278191
 H    4.654072560653    1.528648600872    2.588114278191
 H    4.689212560653    2.047518600872    0.855424278191
NA    1.068362560653    2.030278600872    1.365864278191
NA    1.176902560653   -2.067161399128   -1.206195721809
 S   -3.933223858473    0.233373498279    0.764140102230
 S   -3.796853995072   -0.106376161401   -1.313887816255
 C   -5.382213328974    1.356708875351    0.834340514604
 H   -6.289863596436    0.796408870732    0.580797616458
 H   -5.456563664397    1.697301363271    1.878027690771
 H   -5.242037126239    2.207055889336    0.155775707092
 C   -5.258222703147   -1.182815031750   -1.581166729491
 H   -6.173058300025   -0.593071608226   -1.448701958719
 H   -5.203253470090   -1.519625519373   -2.627163453407
 H   -5.238389830178   -2.038500651524   -0.894477639610
