22

 H    5.780749673706   -0.788059661450   -0.616996211095
 H    4.947449673706   -1.688949661450   -1.914236211095
 H    4.732919673706   -2.198699661450   -0.191976211095
 C    4.873099673706   -1.348349661450   -0.870546211095
 S    3.424109673706   -0.225009661450   -0.800346211095
 S    3.287739673706    0.114740338550    1.277683788905
 C    4.749109673706    1.191180338550    1.544963788905
 H    5.663949673706    0.601430338550    1.412503788905
 H    4.694139673706    1.527990338550    2.590963788905
 H    4.729279673706    2.046860338550    0.858273788905
NA    1.108429673706    2.029620338550    1.368713788905
NA    1.216969673706   -2.067819661450   -1.203346211095
 S   -3.992891417908    0.234353776199    0.759896638278
 S   -3.856521554507   -0.105395883481   -1.318131280207
 C   -5.441880888409    1.357689153271    0.830097050652
 H   -6.349531155870    0.797389148652    0.576554152506
 H   -5.516231223832    1.698281641191    1.873784226819
 H   -5.301704685674    2.208036167256    0.151532243140
 C   -5.317890262582   -1.181834753830   -1.585410193443
 H   -6.232725859460   -0.592091330306   -1.452945422670
 H   -5.262921029525   -1.518645241454   -2.631406917359
 H   -5.298057389613   -2.037520373605   -0.898721103562
