22

 H    5.981085238971   -0.791350973060   -0.602748657524
 H    5.147785238971   -1.692240973060   -1.899988657524
 H    4.933255238971   -2.201990973060   -0.177728657524
 C    5.073435238971   -1.351640973060   -0.856298657524
 S    3.624445238971   -0.228300973060   -0.786098657524
 S    3.488075238971    0.111449026940    1.291931342476
 C    4.949445238971    1.187889026940    1.559211342476
 H    5.864285238971    0.598139026940    1.426751342476
 H    4.894475238971    1.524699026940    2.605211342476
 H    4.929615238971    2.043569026940    0.872521342476
NA    1.308765238971    2.026329026940    1.382961342476
NA    1.417305238971   -2.071110973060   -1.189098657524
 S   -4.291229215083    0.239255165797    0.738679318518
 S   -4.154859351682   -0.100494493883   -1.339348599967
 C   -5.740218685583    1.362590542869    0.808879730892
 H   -6.647868953045    0.802290538250    0.555336832747
 H   -5.814569021007    1.703183030789    1.852566907059
 H   -5.600042482849    2.212937556854    0.130314923380
 C   -5.616228059757   -1.176933364232   -1.606627513202
 H   -6.531063656635   -0.587189940708   -1.474162742430
 H   -5.561258826700   -1.513743851856   -2.652624237119
 H   -5.596395186788   -2.032618984006   -0.919938423322
