22

 H    6.061219465076   -0.792667497705   -0.597049636096
 H    5.227919465076   -1.693557497705   -1.894289636096
 H    5.013389465076   -2.203307497705   -0.172029636096
 C    5.153569465076   -1.352957497705   -0.850599636096
 S    3.704579465076   -0.229617497705   -0.780399636096
 S    3.568209465076    0.110132502295    1.297630363904
 C    5.029579465076    1.186572502295    1.564910363904
 H    5.944419465076    0.596822502295    1.432450363904
 H    4.974609465076    1.523382502295    2.610910363904
 H    5.009749465076    2.042252502295    0.878220363904
NA    1.388899465076    2.025012502295    1.388660363904
NA    1.497439465076   -2.072427497705   -1.183399636096
 S   -4.410564333953    0.241215721636    0.730192390614
 S   -4.274194470552   -0.098533938044   -1.347835527871
 C   -5.859553804453    1.364551098708    0.800392802989
 H   -6.767204071915    0.804251094089    0.546849904843
 H   -5.933904139876    1.705143586628    1.844079979155
 H   -5.719377601719    2.214898112693    0.121827995476
 C   -5.735563178627   -1.174972808393   -1.615114441106
 H   -6.650398775505   -0.585229384869   -1.482649670334
 H   -5.680593945569   -1.511783296016   -2.661111165023
 H   -5.715730305658   -2.030658428167   -0.928425351226
