22

 H    6.141353691182   -0.793984022349   -0.591350614668
 H    5.308053691182   -1.694874022349   -1.888590614668
 H    5.093523691182   -2.204624022349   -0.166330614668
 C    5.233703691182   -1.354274022349   -0.844900614668
 S    3.784713691182   -0.230934022349   -0.774700614668
 S    3.648343691182    0.108815977651    1.303329385332
 C    5.109713691182    1.185255977651    1.570609385332
 H    6.024553691182    0.595505977651    1.438149385332
 H    5.054743691182    1.522065977651    2.616609385332
 H    5.089883691182    2.040935977651    0.883919385332
NA    1.469033691182    2.023695977651    1.394359385332
NA    1.577573691182   -2.073744022349   -1.177700614668
 S   -4.529899452823    0.243176277476    0.721705462710
 S   -4.393529589422   -0.096573382205   -1.356322455775
 C   -5.978888923323    1.366511654548    0.791905875085
 H   -6.886539190785    0.806211649928    0.538362976939
 H   -6.053239258746    1.707104142467    1.835593051251
 H   -5.838712720589    2.216858668532    0.113341067572
 C   -5.854898297497   -1.173012252554   -1.623601369010
 H   -6.769733894374   -0.583268829030   -1.491136598238
 H   -5.799929064439   -1.509822740177   -2.669598092927
 H   -5.835065424528   -2.028697872328   -0.936912279129
