22

 H    6.221487917288   -0.795300546993   -0.585651593239
 H    5.388187917288   -1.696190546993   -1.882891593239
 H    5.173657917288   -2.205940546993   -0.160631593239
 C    5.313837917288   -1.355590546993   -0.839201593239
 S    3.864847917288   -0.232250546993   -0.769001593239
 S    3.728477917288    0.107499453007    1.309028406761
 C    5.189847917288    1.183939453007    1.576308406761
 H    6.104687917288    0.594189453007    1.443848406761
 H    5.134877917288    1.520749453007    2.622308406761
 H    5.170017917288    2.039619453007    0.889618406761
NA    1.549167917288    2.022379453007    1.400058406761
NA    1.657707917288   -2.075060546993   -1.172001593239
 S   -4.649234571693    0.245136833315    0.713218534806
 S   -4.512864708291   -0.094612826365   -1.364809383679
 C   -6.098224042193    1.368472210387    0.783418947181
 H   -7.005874309655    0.808172205768    0.529876049035
 H   -6.172574377616    1.709064698307    1.827106123348
 H   -5.958047839459    2.218819224372    0.104854139668
 C   -5.974233416367   -1.171051696714   -1.632088296914
 H   -6.889069013244   -0.581308273190   -1.499623526142
 H   -5.919264183309   -1.507862184338   -2.678085020830
 H   -5.954400543398   -2.026737316489   -0.945399207033
