22

 H    6.341689256447   -0.797275333960   -0.577103061097
 H    5.508389256447   -1.698165333960   -1.874343061097
 H    5.293859256447   -2.207915333960   -0.152083061097
 C    5.434039256447   -1.357565333960   -0.830653061097
 S    3.985049256447   -0.234225333960   -0.760453061097
 S    3.848679256447    0.105524666040    1.317576938903
 C    5.310049256447    1.181964666040    1.584856938903
 H    6.224889256447    0.592214666040    1.452396938903
 H    5.255079256447    1.518774666040    2.630856938903
 H    5.290219256447    2.037644666040    0.898166938903
NA    1.669369256447    2.020404666040    1.408606938903
NA    1.777909256447   -2.077035333960   -1.163453061097
 S   -4.828237249998    0.248077667074    0.700488142950
 S   -4.691867386596   -0.091671992606   -1.377539775535
 C   -6.277226720498    1.371413044146    0.770688555325
 H   -7.184876987960    0.811113039527    0.517145657179
 H   -6.351577055921    1.712005532065    1.814375731492
 H   -6.137050517764    2.221760058131    0.092123747813
 C   -6.153236094672   -1.168110862955   -1.644818688770
 H   -7.068071691549   -0.578367439431   -1.512353917998
 H   -6.098266861614   -1.504921350579   -2.690815412686
 H   -6.133403221703   -2.023796482730   -0.958129598889
