22

 H    6.381756369500   -0.797933596282   -0.574253550383
 H    5.548456369500   -1.698823596282   -1.871493550383
 H    5.333926369500   -2.208573596282   -0.149233550383
 C    5.474106369500   -1.358223596282   -0.827803550383
 S    4.025116369500   -0.234883596282   -0.757603550383
 S    3.888746369500    0.104866403718    1.320426449617
 C    5.350116369500    1.181306403718    1.587706449617
 H    6.264956369500    0.591556403718    1.455246449617
 H    5.295146369500    1.518116403718    2.633706449617
 H    5.330286369500    2.036986403718    0.901016449617
NA    1.709436369500    2.019746403718    1.411456449617
NA    1.817976369500   -2.077693596282   -1.160603550383
 S   -4.887904809433    0.249057944993    0.696244678999
 S   -4.751534946031   -0.090691714687   -1.381783239486
 C   -6.336894279933    1.372393322065    0.766445091373
 H   -7.244544547395    0.812093317446    0.512902193227
 H   -6.411244615356    1.712985809985    1.810132267540
 H   -6.196718077199    2.222740336050    0.087880283861
 C   -6.212903654107   -1.167130585036   -1.649062152722
 H   -7.127739250984   -0.577387161512   -1.516597381950
 H   -6.157934421049   -1.503941072659   -2.695058876638
 H   -6.193070781138   -2.022816204810   -0.962373062841
