22

 H    6.501957708658   -0.799908383248   -0.565705018240
 H    5.668657708658   -1.700798383248   -1.862945018240
 H    5.454127708658   -2.210548383248   -0.140685018240
 C    5.594307708658   -1.360198383248   -0.819255018240
 S    4.145317708658   -0.236858383248   -0.749055018240
 S    4.008947708658    0.102891616752    1.328974981760
 C    5.470317708658    1.179331616752    1.596254981760
 H    6.385157708658    0.589581616752    1.463794981760
 H    5.415347708658    1.516141616752    2.642254981760
 H    5.450487708658    2.035011616752    0.909564981760
NA    1.829637708658    2.017771616752    1.420004981760
NA    1.938177708658   -2.079668383248   -1.152055018240
 S   -5.066907487738    0.251998778752    0.683514287143
 S   -4.930537624336   -0.087750880928   -1.394513631342
 C   -6.515896958238    1.375334155824    0.753714699517
 H   -7.423547225700    0.815034151205    0.500171801371
 H   -6.590247293661    1.715926643744    1.797401875684
 H   -6.375720755504    2.225681169809    0.075149892005
 C   -6.391906332411   -1.164189751277   -1.661792544578
 H   -7.306741929289   -0.574446327753   -1.529327773806
 H   -6.336937099354   -1.501000238900   -2.707789268494
 H   -6.372073459443   -2.019875371051   -0.975103454697
