22

 H    6.662226160870   -0.802541432537   -0.554306975383
 H    5.828926160870   -1.703431432537   -1.851546975383
 H    5.614396160870   -2.213181432537   -0.129286975383
 C    5.754576160870   -1.362831432537   -0.807856975383
 S    4.305586160870   -0.239491432537   -0.737656975383
 S    4.169216160870    0.100258567463    1.340373024617
 C    5.630586160870    1.176698567463    1.607653024617
 H    6.545426160870    0.586948567463    1.475193024617
 H    5.575616160870    1.513508567463    2.653653024617
 H    5.610756160870    2.032378567463    0.920963024617
NA    1.989906160870    2.015138567463    1.431403024617
NA    2.098446160870   -2.082301432537   -1.140656975383
 S   -5.305577725477    0.255919890431    0.666540431335
 S   -5.169207862076   -0.083829769249   -1.411487487150
 C   -6.754567195978    1.379255267503    0.736740843709
 H   -7.662217463440    0.818955262884    0.483197945564
 H   -6.828917531401    1.719847755423    1.780428019876
 H   -6.614390993243    2.229602281488    0.058176036197
 C   -6.630576570151   -1.160268639598   -1.678766400385
 H   -7.545412167029   -0.570525216074   -1.546301629613
 H   -6.575607337094   -1.497079127222   -2.724763124302
 H   -6.610743697182   -2.015954259373   -0.992077310505
