22

 H    6.702293273923   -0.803199694859   -0.551457464669
 H    5.868993273923   -1.704089694859   -1.848697464669
 H    5.654463273923   -2.213839694859   -0.126437464669
 C    5.794643273923   -1.363489694859   -0.805007464669
 S    4.345653273923   -0.240149694859   -0.734807464669
 S    4.209283273923    0.099600305141    1.343222535331
 C    5.670653273923    1.176040305141    1.610502535331
 H    6.585493273923    0.586290305141    1.478042535331
 H    5.615683273923    1.512850305141    2.656502535331
 H    5.650823273923    2.031720305141    0.923812535331
NA    2.029973273923    2.014480305141    1.434252535331
NA    2.138513273923   -2.082959694859   -1.137807464669
 S   -5.365245284912    0.256900168350    0.662296967383
 S   -5.228875421511   -0.082849491330   -1.415730951102
 C   -6.814234755413    1.380235545422    0.732497379757
 H   -7.721885022875    0.819935540803    0.478954481612
 H   -6.888585090836    1.720828033342    1.776184555924
 H   -6.674058552678    2.230582559407    0.053932572245
 C   -6.690244129586   -1.159288361679   -1.683009864337
 H   -7.605079726464   -0.569544938155   -1.550545093565
 H   -6.635274896529   -1.496098849302   -2.729006588254
 H   -6.670411256617   -2.014973981453   -0.996320774457
