22

 H    6.782427500029   -0.804516219503   -0.545758443241
 H    5.949127500029   -1.705406219503   -1.842998443241
 H    5.734597500029   -2.215156219503   -0.120738443241
 C    5.874777500029   -1.364806219503   -0.799308443241
 S    4.425787500029   -0.241466219503   -0.729108443241
 S    4.289417500029    0.098283780497    1.348921556759
 C    5.750787500029    1.174723780497    1.616201556759
 H    6.665627500029    0.584973780497    1.483741556759
 H    5.695817500029    1.511533780497    2.662201556759
 H    5.730957500029    2.030403780497    0.929511556759
NA    2.110107500029    2.013163780497    1.439951556759
NA    2.218647500029   -2.084276219503   -1.132108443241
 S   -5.484580403782    0.258860724190    0.653810039479
 S   -5.348210540381   -0.080888935490   -1.424217879006
 C   -6.933569874283    1.382196101262    0.724010451853
 H   -7.841220141745    0.821896096643    0.470467553708
 H   -7.007920209706    1.722788589181    1.767697628020
 H   -6.793393671548    2.232543115246    0.045445644341
 C   -6.809579248456   -1.157327805839   -1.691496792241
 H   -7.724414845334   -0.567584382315   -1.559032021469
 H   -6.754610015399   -1.494138293463   -2.737493516158
 H   -6.789746375487   -2.013013425614   -1.004807702361
