22

 H    6.822494613082   -0.805174481825   -0.542908932527
 H    5.989194613082   -1.706064481825   -1.840148932527
 H    5.774664613082   -2.215814481825   -0.117888932527
 C    5.914844613082   -1.365464481825   -0.796458932527
 S    4.465854613082   -0.242124481825   -0.726258932527
 S    4.329484613082    0.097625518175    1.351771067473
 C    5.790854613082    1.174065518175    1.619051067473
 H    6.705694613082    0.584315518175    1.486591067473
 H    5.735884613082    1.510875518175    2.665051067473
 H    5.771024613082    2.029745518175    0.932361067473
NA    2.150174613082    2.012505518175    1.442801067473
NA    2.258714613082   -2.084934481825   -1.129258932527
 S   -5.544247963217    0.259841002109    0.649566575527
 S   -5.407878099816   -0.079908657571   -1.428461342958
 C   -6.993237433718    1.383176379181    0.719766987902
 H   -7.900887701180    0.822876374562    0.466224089756
 H   -7.067587769141    1.723768867101    1.763454164068
 H   -6.853061230983    2.233523393166    0.041202180389
 C   -6.869246807891   -1.156347527920   -1.695740256193
 H   -7.784082404769   -0.566604104396   -1.563275485421
 H   -6.814277574834   -1.493158015543   -2.741736980110
 H   -6.849413934922   -2.012033147694   -1.009051166313
