17

 N   -2.420988139640   -1.899886708612   -0.608789858639
 C   -1.210800072796   -1.244680504936   -0.604828234671
 N    0.022612341507   -1.843358199398   -0.592789949766
 C    0.993035541563   -0.953182057787   -0.604662406739
 N    0.789958704150    0.408456075727   -0.611497567081
 H    1.593785829401    1.028416615482   -0.693485589503
 N    2.318490295800   -1.371856779467   -0.683009709974
 H    2.973026501132   -0.840053555067   -0.115368933244
 H    2.397295383191   -2.372556923402   -0.521426371985
 C   -0.469315038167    1.094489779258   -0.598543780404
 O   -0.496895407272    2.322662864035   -0.602631908832
 C   -1.542100164143    0.120796389984   -0.592342582464
 N   -2.913173465912    0.307127435297   -0.592417767180
 C   -3.406696960423   -0.931475578748   -0.602747866845
 H   -4.464194873691   -1.185622200580   -0.605694511271
 H   -2.546085136171   -2.906469793844   -0.617449409670
CS    0.801133648047    0.404422883175    0.688448144857
