17

 N   -2.421390481748   -1.899741497754   -0.655593037495
 C   -1.211202414904   -1.244535294078   -0.651631413527
 N    0.022209999399   -1.843212988540   -0.639593128622
 C    0.992633199455   -0.953036846929   -0.651465585595
 N    0.789556362042    0.408601286585   -0.658300745937
 H    1.593383487293    1.028561826340   -0.740288768359
 N    2.318087953692   -1.371711568609   -0.729812888830
 H    2.972624159024   -0.839908344209   -0.162172112100
 H    2.396893041083   -2.372411712544   -0.568229550841
 C   -0.469717380275    1.094634990116   -0.645346959260
 O   -0.497297749380    2.322808074893   -0.649435087688
 C   -1.542502506251    0.120941600842   -0.639145761320
 N   -2.913575808020    0.307272646155   -0.639220946036
 C   -3.407099302531   -0.931330367890   -0.649551045701
 H   -4.464597215799   -1.185476989722   -0.652497690127
 H   -2.546487478279   -2.906324582986   -0.664252588526
CS    0.801590917008    0.404257848452    0.741640789996
