17

 N   -2.421792823855   -1.899596286896   -0.702396216352
 C   -1.211604757011   -1.244390083220   -0.698434592384
 N    0.021807657292   -1.843067777682   -0.686396307479
 C    0.992230857348   -0.952891636071   -0.698268764452
 N    0.789154019935    0.408746497443   -0.705103924794
 H    1.592981145186    1.028707037198   -0.787091947216
 N    2.317685611585   -1.371566357751   -0.776616067687
 H    2.972221816917   -0.839763133351   -0.208975290957
 H    2.396490698976   -2.372266501686   -0.615032729698
 C   -0.470119722382    1.094780200974   -0.692150138117
 O   -0.497700091487    2.322953285751   -0.696238266545
 C   -1.542904848358    0.121086811700   -0.685948940177
 N   -2.913978150127    0.307417857013   -0.686024124893
 C   -3.407501644638   -0.931185157032   -0.696354224558
 H   -4.464999557906   -1.185331778864   -0.699300868984
 H   -2.546889820386   -2.906179372128   -0.711055767383
CS    0.802048185969    0.404092813730    0.794833435135
