17

 N   -2.422195165963   -1.899451076038   -0.749199395208
 C   -1.212007099119   -1.244244872362   -0.745237771240
 N    0.021405315184   -1.842922566824   -0.733199486335
 C    0.991828515240   -0.952746425213   -0.745071943308
 N    0.788751677827    0.408891708301   -0.751907103650
 H    1.592578803078    1.028852248056   -0.833895126072
 N    2.317283269477   -1.371421146893   -0.823419246543
 H    2.971819474809   -0.839617922493   -0.255778469813
 H    2.396088356868   -2.372121290828   -0.661835908554
 C   -0.470522064490    1.094925411832   -0.738953316973
 O   -0.498102433595    2.323098496609   -0.743041445401
 C   -1.543307190466    0.121232022558   -0.732752119033
 N   -2.914380492235    0.307563067871   -0.732827303749
 C   -3.407903986746   -0.931039946174   -0.743157403414
 H   -4.465401900014   -1.185186568006   -0.746104047840
 H   -2.547292162494   -2.906034161270   -0.757858946239
CS    0.802505454930    0.403927779007    0.848026080274
