17

 N   -2.422597508071   -1.899305865180   -0.796002574065
 C   -1.212409441227   -1.244099661504   -0.792040950097
 N    0.021002973076   -1.842777355966   -0.780002665192
 C    0.991426173132   -0.952601214355   -0.791875122165
 N    0.788349335719    0.409036919159   -0.798710282507
 H    1.592176460970    1.028997458914   -0.880698304929
 N    2.316880927369   -1.371275936035   -0.870222425400
 H    2.971417132701   -0.839472711635   -0.302581648670
 H    2.395686014760   -2.371976079970   -0.708639087411
 C   -0.470924406598    1.095070622690   -0.785756495830
 O   -0.498504775703    2.323243707467   -0.789844624258
 C   -1.543709532574    0.121377233416   -0.779555297890
 N   -2.914782834343    0.307708278729   -0.779630482606
 C   -3.408306328854   -0.930894735316   -0.789960582271
 H   -4.465804242122   -1.185041357148   -0.792907226697
 H   -2.547694504602   -2.905888950412   -0.804662125096
CS    0.802962723891    0.403762744284    0.901218725412
