17

 N   -2.422999850179   -1.899160654322   -0.842805752921
 C   -1.212811783335   -1.243954450646   -0.838844128953
 N    0.020600630968   -1.842632145108   -0.826805844048
 C    0.991023831024   -0.952456003497   -0.838678301021
 N    0.787946993611    0.409182130017   -0.845513461363
 H    1.591774118862    1.029142669772   -0.927501483785
 N    2.316478585261   -1.371130725177   -0.917025604256
 H    2.971014790593   -0.839327500777   -0.349384827526
 H    2.395283672652   -2.371830869112   -0.755442266267
 C   -0.471326748706    1.095215833548   -0.832559674686
 O   -0.498907117811    2.323388918325   -0.836647803114
 C   -1.544111874682    0.121522444274   -0.826358476746
 N   -2.915185176451    0.307853489587   -0.826433661462
 C   -3.408708670962   -0.930749524458   -0.836763761127
 H   -4.466206584230   -1.184896146290   -0.839710405553
 H   -2.548096846710   -2.905743739554   -0.851465303952
CS    0.803419992852    0.403597709561    0.954411370551
