17

 N   -2.455991903028   -1.887253363955   -4.680666419153
 C   -1.245803836184   -1.232047160279   -4.676704795185
 N   -0.012391421881   -1.830724854741   -4.664666510280
 C    0.958031778175   -0.940548713130   -4.676538967253
 N    0.754954940762    0.421089420384   -4.683374127595
 H    1.558782066013    1.041049960139   -4.765362150017
 N    2.283486532412   -1.359223434810   -4.754886270488
 H    2.938022737744   -0.827420210410   -4.187245493758
 H    2.362291619803   -2.359923578745   -4.593302932499
 C   -0.504318801555    1.107123123915   -4.670420340918
 O   -0.531899170660    2.335296208692   -4.674508469346
 C   -1.577103927531    0.133429734641   -4.664219142978
 N   -2.948177229300    0.319760779954   -4.664294327694
 C   -3.441700723811   -0.918842234091   -4.674624427359
 H   -4.499198637079   -1.172988855923   -4.677571071785
 H   -2.581088899559   -2.893836449187   -4.689325970184
CS    0.840916047660    0.390064862295    5.316208271931
