17

 N   -2.423804534395   -1.898870232606   -0.936412110634
 C   -1.213616467551   -1.243664028930   -0.932450486666
 N    0.019795946752   -1.842341723392   -0.920412201761
 C    0.990219146808   -0.952165581781   -0.932284658734
 N    0.787142309395    0.409472551733   -0.939119819076
 H    1.590969434646    1.029433091488   -1.021107841498
 N    2.315673901045   -1.370840303461   -1.010631961969
 H    2.970210106377   -0.839037079061   -0.442991185239
 H    2.394478988436   -2.371540447396   -0.849048623980
 C   -0.472131432922    1.095506255264   -0.926166032399
 O   -0.499711802027    2.323679340041   -0.930254160827
 C   -1.544916558898    0.121812865990   -0.919964834459
 N   -2.915989860667    0.308143911303   -0.920040019175
 C   -3.409513355178   -0.930459102742   -0.930370118840
 H   -4.467011268446   -1.184605724574   -0.933316763266
 H   -2.548901530926   -2.905453317838   -0.945071661665
CS    0.804334530775    0.403267640116    1.060796660829
