17

 N   -2.425816244935   -1.898144178315   -1.170428004917
 C   -1.215628178091   -1.242937974639   -1.166466380949
 N    0.017784236212   -1.841615669101   -1.154428096044
 C    0.988207436268   -0.951439527490   -1.166300553017
 N    0.785130598855    0.410198606024   -1.173135713359
 H    1.588957724106    1.030159145779   -1.255123735781
 N    2.313662190505   -1.370114249170   -1.244647856252
 H    2.968198395837   -0.838311024770   -0.677007079522
 H    2.392467277896   -2.370814393105   -1.083064518263
 C   -0.474143143462    1.096232309555   -1.160181926682
 O   -0.501723512567    2.324405394332   -1.164270055110
 C   -1.546928269438    0.122538920281   -1.153980728742
 N   -2.918001571207    0.308869965594   -1.154055913458
 C   -3.411525065718   -0.929733048451   -1.164386013123
 H   -4.469022978986   -1.183879670283   -1.167332657549
 H   -2.550913241466   -2.904727263547   -1.179087555948
CS    0.806620875580    0.402442466502    1.326759886523
