17

 N   -2.427425613366   -1.897563334882   -1.357640720343
 C   -1.217237546522   -1.242357131206   -1.353679096375
 N    0.016174867781   -1.841034825668   -1.341640811470
 C    0.986598067837   -0.950858684057   -1.353513268443
 N    0.783521230424    0.410779449457   -1.360348428785
 H    1.587348355675    1.030739989212   -1.442336451207
 N    2.312052822074   -1.369533405737   -1.431860571678
 H    2.966589027406   -0.837730181337   -0.864219794948
 H    2.390857909465   -2.370233549672   -1.270277233689
 C   -0.475752511893    1.096813152988   -1.347394642108
 O   -0.503332880998    2.324986237765   -1.351482770536
 C   -1.548537637869    0.123119763714   -1.341193444168
 N   -2.919610939638    0.309450809027   -1.341268628884
 C   -3.413134434149   -0.929152205018   -1.351598728549
 H   -4.470632347417   -1.183298826850   -1.354545372975
 H   -2.552522609897   -2.904146420114   -1.366300271374
CS    0.808449951424    0.401782327611    1.539530467078
