17

 N   -2.428230297582   -1.897272913166   -1.451247078056
 C   -1.218042230738   -1.242066709490   -1.447285454088
 N    0.015370183565   -1.840744403952   -1.435247169183
 C    0.985793383621   -0.950568262341   -1.447119626156
 N    0.782716546208    0.411069871173   -1.453954786498
 H    1.586543671459    1.031030410928   -1.535942808920
 N    2.311248137858   -1.369242984021   -1.525466929391
 H    2.965784343190   -0.837439759621   -0.957826152661
 H    2.390053225249   -2.369943127956   -1.363883591402
 C   -0.476557196109    1.097103574704   -1.441000999821
 O   -0.504137565214    2.325276659481   -1.445089128249
 C   -1.549342322085    0.123410185430   -1.434799801881
 N   -2.920415623854    0.309741230743   -1.434874986597
 C   -3.413939118365   -0.928861783302   -1.445205086262
 H   -4.471437031633   -1.183008405134   -1.448151730688
 H   -2.553327294113   -2.903855998398   -1.459906629087
CS    0.809364489346    0.401452258166    1.645915757355
