17

 N   -2.429437323906   -1.896837280592   -1.591656614625
 C   -1.219249257062   -1.241631076916   -1.587694990657
 N    0.014163157241   -1.840308771378   -1.575656705752
 C    0.984586357297   -0.950132629767   -1.587529162725
 N    0.781509519884    0.411505503747   -1.594364323067
 H    1.585336645135    1.031466043502   -1.676352345489
 N    2.310041111534   -1.368807351447   -1.665876465960
 H    2.964577316866   -0.837004127047   -1.098235689230
 H    2.388846198925   -2.369507495382   -1.504293127971
 C   -0.477764222433    1.097539207278   -1.581410536390
 O   -0.505344591538    2.325712292055   -1.585498664818
 C   -1.550549348409    0.123845818004   -1.575209338450
 N   -2.921622650178    0.310176863317   -1.575284523166
 C   -3.415146144689   -0.928426150728   -1.585614622831
 H   -4.472644057957   -1.182572772560   -1.588561267257
 H   -2.554534320437   -2.903420365824   -1.600316165656
CS    0.810736296229    0.400957153997    1.805493692772
