17

 N   -2.430242008122   -1.896546858875   -1.685262972338
 C   -1.220053941278   -1.241340655199   -1.681301348370
 N    0.013358473025   -1.840018349661   -1.669263063465
 C    0.983781673081   -0.949842208050   -1.681135520438
 N    0.780704835668    0.411795925464   -1.687970680780
 H    1.584531960919    1.031756465219   -1.769958703202
 N    2.309236427318   -1.368516929730   -1.759482823673
 H    2.963772632650   -0.836713705330   -1.191842046943
 H    2.388041514709   -2.369217073665   -1.597899485684
 C   -0.478568906649    1.097829628995   -1.675016894103
 O   -0.506149275754    2.326002713772   -1.679105022531
 C   -1.551354032625    0.124136239721   -1.668815696163
 N   -2.922427334394    0.310467285034   -1.668890880879
 C   -3.415950828905   -0.928135729011   -1.679220980544
 H   -4.473448742173   -1.182282350843   -1.682167624970
 H   -2.555339004653   -2.903129944107   -1.693922523369
CS    0.811650834152    0.400627084552    1.911878983049
