17

 N   -2.431046692337   -1.896256437159   -1.778869330051
 C   -1.220858625493   -1.241050233483   -1.774907706083
 N    0.012553788810   -1.839727927945   -1.762869421178
 C    0.982976988866   -0.949551786334   -1.774741878151
 N    0.779900151453    0.412086347180   -1.781577038493
 H    1.583727276704    1.032046886935   -1.863565060915
 N    2.308431743103   -1.368226508014   -1.853089181386
 H    2.962967948435   -0.836423283614   -1.285448404656
 H    2.387236830494   -2.368926651949   -1.691505843397
 C   -0.479373590864    1.098120050711   -1.768623251816
 O   -0.506953959969    2.326293135488   -1.772711380244
 C   -1.552158716840    0.124426661437   -1.762422053876
 N   -2.923232018609    0.310757706750   -1.762497238592
 C   -3.416755513120   -0.927845307295   -1.772827338257
 H   -4.474253426388   -1.181991929127   -1.775773982683
 H   -2.556143688868   -2.902839522391   -1.787528881082
CS    0.812565372074    0.400297015106    2.018264273327
