17

 N   -2.431851376553   -1.895966015443   -1.872475687764
 C   -1.221663309709   -1.240759811767   -1.868514063796
 N    0.011749104594   -1.839437506229   -1.856475778891
 C    0.982172304650   -0.949261364618   -1.868348235864
 N    0.779095467237    0.412376768896   -1.875183396206
 H    1.582922592488    1.032337308651   -1.957171418628
 N    2.307627058887   -1.367936086298   -1.946695539099
 H    2.962163264219   -0.836132861898   -1.379054762369
 H    2.386432146278   -2.368636230233   -1.785112201110
 C   -0.480178275080    1.098410472427   -1.862229609529
 O   -0.507758644185    2.326583557204   -1.866317737957
 C   -1.552963401056    0.124717083153   -1.856028411589
 N   -2.924036702825    0.311048128466   -1.856103596305
 C   -3.417560197336   -0.927554885579   -1.866433695970
 H   -4.475058110604   -1.181701507411   -1.869380340396
 H   -2.556948373084   -2.902549100675   -1.881135238795
CS    0.813479909996    0.399966945661    2.124649563604
