17

 N   -2.432656060769   -1.895675593727   -1.966082045477
 C   -1.222467993925   -1.240469390051   -1.962120421509
 N    0.010944420378   -1.839147084513   -1.950082136604
 C    0.981367620434   -0.948970942902   -1.961954593577
 N    0.778290783021    0.412667190612   -1.968789753919
 H    1.582117908272    1.032627730367   -2.050777776341
 N    2.306822374671   -1.367645664582   -2.040301896812
 H    2.961358580003   -0.835842440182   -1.472661120082
 H    2.385627462062   -2.368345808517   -1.878718558823
 C   -0.480982959296    1.098700894143   -1.955835967242
 O   -0.508563328401    2.326873978920   -1.959924095670
 C   -1.553768085272    0.125007504869   -1.949634769302
 N   -2.924841387041    0.311338550182   -1.949709954018
 C   -3.418364881552   -0.927264463863   -1.960040053683
 H   -4.475862794820   -1.181411085695   -1.962986698109
 H   -2.557753057300   -2.902258678959   -1.974741596508
CS    0.814394447918    0.399636876215    2.231034853882
