17

 N   -2.433863087093   -1.895239961152   -2.106491582046
 C   -1.223675020249   -1.240033757476   -2.102529958078
 N    0.009737394054   -1.838711451938   -2.090491673173
 C    0.980160594110   -0.948535310327   -2.102364130146
 N    0.777083756697    0.413102823187   -2.109199290488
 H    1.580910881948    1.033063362942   -2.191187312910
 N    2.305615348347   -1.367210032007   -2.180711433381
 H    2.960151553679   -0.835406807607   -1.613070656651
 H    2.384420435738   -2.367910175942   -2.019128095392
 C   -0.482189985620    1.099136526718   -2.096245503811
 O   -0.509770354725    2.327309611495   -2.100333632239
 C   -1.554975111596    0.125443137444   -2.090044305871
 N   -2.926048413365    0.311774182757   -2.090119490587
 C   -3.419571907876   -0.926828831288   -2.100449590252
 H   -4.477069821144   -1.180975453120   -2.103396234678
 H   -2.558960083624   -2.901823046384   -2.115151133077
CS    0.815766254801    0.399141772047    2.390612789298
