17

 N   -2.435070113416   -1.894804328578   -2.246901118616
 C   -1.224882046572   -1.239598124902   -2.242939494648
 N    0.008530367731   -1.838275819364   -2.230901209743
 C    0.978953567787   -0.948099677753   -2.242773666716
 N    0.775876730374    0.413538455761   -2.249608827058
 H    1.579703855625    1.033498995516   -2.331596849480
 N    2.304408322024   -1.366774399433   -2.321120969951
 H    2.958944527356   -0.834971175033   -1.753480193221
 H    2.383213409415   -2.367474543368   -2.159537631962
 C   -0.483397011943    1.099572159292   -2.236655040381
 O   -0.510977381048    2.327745244069   -2.240743168809
 C   -1.556182137919    0.125878770018   -2.230453842441
 N   -2.927255439688    0.312209815331   -2.230529027157
 C   -3.420778934199   -0.926393198714   -2.240859126822
 H   -4.478276847467   -1.180539820546   -2.243805771248
 H   -2.560167109947   -2.901387413810   -2.255560669647
CS    0.817138061684    0.398646667879    2.550190724714
