17

 N   -2.435472455524   -1.894659117720   -2.293704297472
 C   -1.225284388680   -1.239452914044   -2.289742673504
 N    0.008128025623   -1.838130608506   -2.277704388599
 C    0.978551225679   -0.947954466895   -2.289576845572
 N    0.775474388266    0.413683666619   -2.296412005914
 H    1.579301513517    1.033644206374   -2.378400028336
 N    2.304005979916   -1.366629188575   -2.367924148807
 H    2.958542185248   -0.834825964175   -1.800283372077
 H    2.382811067307   -2.367329332510   -2.206340810818
 C   -0.483799354051    1.099717370150   -2.283458219237
 O   -0.511379723156    2.327890454927   -2.287546347665
 C   -1.556584480027    0.126023980876   -2.277257021297
 N   -2.927657781796    0.312355026189   -2.277332206013
 C   -3.421181276307   -0.926247987856   -2.287662305678
 H   -4.478679189575   -1.180394609688   -2.290608950104
 H   -2.560569452055   -2.901242202952   -2.302363848503
CS    0.817595330646    0.398481633156    2.603383369853
