17

 N   -2.436679481848   -1.894223485145   -2.434113834042
 C   -1.226491415004   -1.239017281469   -2.430152210074
 N    0.006920999299   -1.837694975931   -2.418113925169
 C    0.977344199355   -0.947518834320   -2.429986382142
 N    0.774267361942    0.414119299194   -2.436821542484
 H    1.578094487193    1.034079838949   -2.518809564906
 N    2.302798953592   -1.366193556000   -2.508333685377
 H    2.957335158924   -0.834390331600   -1.940692908647
 H    2.381604040983   -2.366893699935   -2.346750347388
 C   -0.485006380375    1.100153002725   -2.423867755807
 O   -0.512586749480    2.328326087502   -2.427955884235
 C   -1.557791506351    0.126459613451   -2.417666557867
 N   -2.928864808120    0.312790658764   -2.417741742583
 C   -3.422388302631   -0.925812355281   -2.428071842248
 H   -4.479886215899   -1.179958977113   -2.431018486674
 H   -2.561776478379   -2.900806570377   -2.442773385073
CS    0.818967137529    0.397986528988    2.762961305269
