17

 N   -2.437484166064   -1.893933063429   -2.527720191755
 C   -1.227296099220   -1.238726859753   -2.523758567787
 N    0.006116315083   -1.837404554215   -2.511720282882
 C    0.976539515139   -0.947228412604   -2.523592739855
 N    0.773462677726    0.414409720910   -2.530427900197
 H    1.577289802977    1.034370260665   -2.612415922619
 N    2.301994269376   -1.365903134284   -2.601940043090
 H    2.956530474708   -0.834099909884   -2.034299266360
 H    2.380799356767   -2.366603278219   -2.440356705101
 C   -0.485811064591    1.100443424441   -2.517474113520
 O   -0.513391433696    2.328616509218   -2.521562241948
 C   -1.558596190567    0.126750035167   -2.511272915580
 N   -2.929669492336    0.313081080480   -2.511348100296
 C   -3.423192986847   -0.925521933565   -2.521678199961
 H   -4.480690900115   -1.179668555397   -2.524624844387
 H   -2.562581162595   -2.900516148661   -2.536379742786
CS    0.819881675451    0.397656459542    2.869346595547
