17

 N   -2.439495876603   -1.893207009139   -2.761736086037
 C   -1.229307809759   -1.238000805463   -2.757774462069
 N    0.004104604544   -1.836678499925   -2.745736177164
 C    0.974527804600   -0.946502358314   -2.757608634137
 N    0.771450967187    0.415135775200   -2.764443794479
 H    1.575278092438    1.035096314955   -2.846431816901
 N    2.299982558837   -1.365177079994   -2.835955937372
 H    2.954518764169   -0.833373855594   -2.268315160642
 H    2.378787646228   -2.365877223929   -2.674372599383
 C   -0.487822775130    1.101169478731   -2.751490007802
 O   -0.515403144235    2.329342563508   -2.755578136230
 C   -1.560607901106    0.127476089457   -2.745288809862
 N   -2.931681202875    0.313807134770   -2.745363994578
 C   -3.425204697386   -0.924795879275   -2.755694094243
 H   -4.482702610654   -1.178942501107   -2.758640738669
 H   -2.564592873134   -2.899790094371   -2.770395637068
CS    0.822168020256    0.396831285928    3.135309821241
