17

 N   -2.439898218711   -1.893061798280   -2.808539264894
 C   -1.229710151867   -1.237855594604   -2.804577640926
 N    0.003702262436   -1.836533289066   -2.792539356021
 C    0.974125462492   -0.946357147455   -2.804411812994
 N    0.771048625079    0.415280986059   -2.811246973336
 H    1.574875750330    1.035241525814   -2.893234995758
 N    2.299580216729   -1.365031869135   -2.882759116229
 H    2.954116422061   -0.833228644735   -2.315118339499
 H    2.378385304120   -2.365732013070   -2.721175778240
 C   -0.488225117238    1.101314689590   -2.798293186659
 O   -0.515805486343    2.329487774367   -2.802381315087
 C   -1.561010243214    0.127621300316   -2.792091988719
 N   -2.932083544983    0.313952345629   -2.792167173435
 C   -3.425607039494   -0.924650668416   -2.802497273100
 H   -4.483104952762   -1.178797290248   -2.805443917526
 H   -2.564995215242   -2.899644883512   -2.817198815925
CS    0.822625289217    0.396666251206    3.188502466380
