17

 N   -2.440300560819   -1.892916587422   -2.855342443750
 C   -1.230112493975   -1.237710383746   -2.851380819782
 N    0.003299920328   -1.836388078208   -2.839342534877
 C    0.973723120384   -0.946211936597   -2.851214991850
 N    0.770646282971    0.415426196917   -2.858050152192
 H    1.574473408222    1.035386736672   -2.940038174614
 N    2.299177874621   -1.364886658277   -2.929562295085
 H    2.953714079953   -0.833083433877   -2.361921518355
 H    2.377982962012   -2.365586802212   -2.767978957096
 C   -0.488627459346    1.101459900448   -2.845096365515
 O   -0.516207828451    2.329632985225   -2.849184493943
 C   -1.561412585322    0.127766511174   -2.838895167575
 N   -2.932485887091    0.314097556487   -2.838970352291
 C   -3.426009381602   -0.924505457558   -2.849300451956
 H   -4.483507294870   -1.178652079390   -2.852247096382
 H   -2.565397557350   -2.899499672654   -2.864001994781
CS    0.823082558178    0.396501216483    3.241695111518
