17

 N   -2.441909929251   -1.892335743990   -3.042555159176
 C   -1.231721862407   -1.237129540314   -3.038593535208
 N    0.001690551896   -1.835807234776   -3.026555250303
 C    0.972113751952   -0.945631093165   -3.038427707276
 N    0.769036914539    0.416007040349   -3.045262867618
 H    1.572864039790    1.035967580104   -3.127250890040
 N    2.297568506189   -1.364305814845   -3.116775010511
 H    2.952104711521   -0.832502590445   -2.549134233781
 H    2.376373593580   -2.365005958780   -2.955191672522
 C   -0.490236827778    1.102040743880   -3.032309080941
 O   -0.517817196883    2.330213828657   -3.036397209369
 C   -1.563021953754    0.128347354606   -3.026107883001
 N   -2.934095255523    0.314678399919   -3.026183067717
 C   -3.427618750034   -0.923924614126   -3.036513167382
 H   -4.485116663302   -1.178071235958   -3.039459811808
 H   -2.567006925782   -2.898918829222   -3.051214710207
CS    0.824911634023    0.395841077592    3.454465692073
