17

 N   -2.442714613467   -1.892045322274   -3.136161516889
 C   -1.232526546623   -1.236839118598   -3.132199892921
 N    0.000885867680   -1.835516813060   -3.120161608016
 C    0.971309067736   -0.945340671449   -3.132034064989
 N    0.768232230323    0.416297462065   -3.138869225331
 H    1.572059355574    1.036258001820   -3.220857247753
 N    2.296763821973   -1.364015393129   -3.210381368224
 H    2.951300027305   -0.832212168729   -2.642740591494
 H    2.375568909364   -2.364715537064   -3.048798030235
 C   -0.491041511994    1.102331165596   -3.125915438654
 O   -0.518621881099    2.330504250373   -3.130003567082
 C   -1.563826637970    0.128637776322   -3.119714240714
 N   -2.934899939739    0.314968821635   -3.119789425430
 C   -3.428423434250   -0.923634192410   -3.130119525095
 H   -4.485921347518   -1.177780814242   -3.133066169521
 H   -2.567811609998   -2.898628407506   -3.144821067920
CS    0.825826171945    0.395511008146    3.560850982351
