17

 N   -2.443116955575   -1.891900111415   -3.182964695745
 C   -1.232928888731   -1.236693907739   -3.179003071777
 N    0.000483525572   -1.835371602201   -3.166964786872
 C    0.970906725628   -0.945195460590   -3.178837243845
 N    0.767829888215    0.416442672924   -3.185672404187
 H    1.571657013466    1.036403212679   -3.267660426609
 N    2.296361479865   -1.363870182270   -3.257184547080
 H    2.950897685197   -0.832066957870   -2.689543770350
 H    2.375166567256   -2.364570326205   -3.095601209091
 C   -0.491443854102    1.102476376455   -3.172718617510
 O   -0.519024223207    2.330649461232   -3.176806745938
 C   -1.564228980078    0.128782987181   -3.166517419570
 N   -2.935302281847    0.315114032494   -3.166592604286
 C   -3.428825776358   -0.923488981551   -3.176922703951
 H   -4.486323689626   -1.177635603383   -3.179869348377
 H   -2.568213952106   -2.898483196647   -3.191624246776
CS    0.826283440906    0.395345973424    3.614043627490
