17

 N   -2.443519297683   -1.891754900557   -3.229767874602
 C   -1.233331230839   -1.236548696881   -3.225806250634
 N    0.000081183464   -1.835226391343   -3.213767965729
 C    0.970504383520   -0.945050249732   -3.225640422702
 N    0.767427546107    0.416587883782   -3.232475583044
 H    1.571254671358    1.036548423537   -3.314463605466
 N    2.295959137757   -1.363724971412   -3.303987725937
 H    2.950495343089   -0.831921747012   -2.736346949207
 H    2.374764225148   -2.364425115347   -3.142404387948
 C   -0.491846196210    1.102621587313   -3.219521796367
 O   -0.519426565315    2.330794672090   -3.223609924795
 C   -1.564631322186    0.128928198039   -3.213320598427
 N   -2.935704623955    0.315259243352   -3.213395783143
 C   -3.429228118466   -0.923343770693   -3.223725882808
 H   -4.486726031734   -1.177490392525   -3.226672527234
 H   -2.568616294214   -2.898337985789   -3.238427425633
CS    0.826740709867    0.395180938701    3.667236272629
