17

 N   -2.444323981898   -1.891464478841   -3.323374232315
 C   -1.234135915054   -1.236258275165   -3.319412608347
 N   -0.000723500751   -1.834935969627   -3.307374323442
 C    0.969699699305   -0.944759828016   -3.319246780415
 N    0.766622861892    0.416878305498   -3.326081940757
 H    1.570449987143    1.036838845253   -3.408069963179
 N    2.295154453542   -1.363434549696   -3.397594083650
 H    2.949690658874   -0.831631325296   -2.829953306920
 H    2.373959540933   -2.364134693631   -3.236010745661
 C   -0.492650880425    1.102912009029   -3.313128154080
 O   -0.520231249530    2.331085093806   -3.317216282508
 C   -1.565436006401    0.129218619755   -3.306926956140
 N   -2.936509308170    0.315549665068   -3.307002140856
 C   -3.430032802681   -0.923053348977   -3.317332240521
 H   -4.487530715949   -1.177199970809   -3.320278884947
 H   -2.569420978429   -2.898047564073   -3.332033783346
CS    0.827655247789    0.394850869255    3.773621562906
