17

 N   -2.445933350330   -1.890883635409   -3.510586947741
 C   -1.235745283486   -1.235677431733   -3.506625323773
 N   -0.002332869183   -1.834355126195   -3.494587038868
 C    0.968090330873   -0.944178984584   -3.506459495841
 N    0.765013493460    0.417459148930   -3.513294656183
 H    1.568840618711    1.037419688685   -3.595282678605
 N    2.293545085110   -1.362853706264   -3.584806799076
 H    2.948081290442   -0.831050481864   -3.017166022346
 H    2.372350172501   -2.363553850199   -3.423223461087
 C   -0.494260248857    1.103492852461   -3.500340869506
 O   -0.521840617962    2.331665937238   -3.504428997934
 C   -1.567045374833    0.129799463187   -3.494139671566
 N   -2.938118676602    0.316130508500   -3.494214856282
 C   -3.431642171113   -0.922472505545   -3.504544955947
 H   -4.489140084381   -1.176619127377   -3.507491600373
 H   -2.571030346861   -2.897466720641   -3.519246498772
CS    0.829484323633    0.394190730364    3.986392143461
