17

 N   -2.446738034546   -1.890593213692   -3.604193305454
 C   -1.236549967702   -1.235387010016   -3.600231681486
 N   -0.003137553399   -1.834064704478   -3.588193396581
 C    0.967285646657   -0.943888562867   -3.600065853554
 N    0.764208809244    0.417749570647   -3.606901013896
 H    1.568035934495    1.037710110402   -3.688889036318
 N    2.292740400894   -1.362563284547   -3.678413156789
 H    2.947276606226   -0.830760060147   -3.110772380059
 H    2.371545488285   -2.363263428482   -3.516829818800
 C   -0.495064933073    1.103783274178   -3.593947227219
 O   -0.522645302178    2.331956358955   -3.598035355647
 C   -1.567850059049    0.130089884904   -3.587746029279
 N   -2.938923360818    0.316420930217   -3.587821213995
 C   -3.432446855329   -0.922182083828   -3.598151313660
 H   -4.489944768597   -1.176328705660   -3.601097958086
 H   -2.571835031077   -2.897176298924   -3.612852856485
CS    0.830398861555    0.393860660919    4.092777433739
