17

 N   -2.447542718762   -1.890302791976   -3.697799663167
 C   -1.237354651918   -1.235096588300   -3.693838039199
 N   -0.003942237615   -1.833774282762   -3.681799754294
 C    0.966480962441   -0.943598141151   -3.693672211267
 N    0.763404125028    0.418039992363   -3.700507371609
 H    1.567231250279    1.038000532118   -3.782495394031
 N    2.291935716678   -1.362272862831   -3.772019514502
 H    2.946471922010   -0.830469638431   -3.204378737772
 H    2.370740804069   -2.362973006766   -3.610436176513
 C   -0.495869617289    1.104073695894   -3.687553584932
 O   -0.523449986394    2.332246780671   -3.691641713360
 C   -1.568654743265    0.130380306620   -3.681352386992
 N   -2.939728045034    0.316711351933   -3.681427571708
 C   -3.433251539545   -0.921891662112   -3.691757671373
 H   -4.490749452813   -1.176038283944   -3.694704315799
 H   -2.572639715293   -2.896885877208   -3.706459214198
CS    0.831313399478    0.393530591473    4.199162724016
