17

 N   -2.447945060870   -1.890157581118   -3.744602842023
 C   -1.237756994026   -1.234951377442   -3.740641218055
 N   -0.004344579723   -1.833629071904   -3.728602933150
 C    0.966078620333   -0.943452930293   -3.740475390123
 N    0.763001782920    0.418185203221   -3.747310550465
 H    1.566828908171    1.038145742976   -3.829298572887
 N    2.291533374570   -1.362127651973   -3.818822693358
 H    2.946069579902   -0.830324427573   -3.251181916628
 H    2.370338461961   -2.362827795908   -3.657239355369
 C   -0.496271959397    1.104218906752   -3.734356763788
 O   -0.523852328502    2.332391991529   -3.738444892216
 C   -1.569057085373    0.130525517478   -3.728155565848
 N   -2.940130387142    0.316856562791   -3.728230750564
 C   -3.433653881653   -0.921746451254   -3.738560850229
 H   -4.491151794921   -1.175893073086   -3.741507494655
 H   -2.573042057401   -2.896740666350   -3.753262393054
CS    0.831770668439    0.393365556751    4.252355369155
