17

 N   -2.449554429301   -1.889576737685   -3.931815557449
 C   -1.239366362457   -1.234370534009   -3.927853933481
 N   -0.005953948154   -1.833048228471   -3.915815648576
 C    0.964469251902   -0.942872086860   -3.927688105549
 N    0.761392414489    0.418766046654   -3.934523265891
 H    1.565219539740    1.038726586409   -4.016511288313
 N    2.289924006139   -1.361546808540   -4.006035408784
 H    2.944460211471   -0.829743584140   -3.438394632054
 H    2.368729093530   -2.362246952475   -3.844452070795
 C   -0.497881327828    1.104799750185   -3.921569479214
 O   -0.525461696933    2.332972834962   -3.925657607642
 C   -1.570666453804    0.131106360911   -3.915368281274
 N   -2.941739755573    0.317437406224   -3.915443465990
 C   -3.435263250084   -0.921165607821   -3.925773565655
 H   -4.492761163352   -1.175312229653   -3.928720210081
 H   -2.574651425832   -2.896159822917   -3.940475108480
CS    0.833599744283    0.392705417860    4.465125949710
