17

 N   -2.451566139841   -1.888850683395   -4.165831451732
 C   -1.241378072997   -1.233644479719   -4.161869827764
 N   -0.007965658694   -1.832322174181   -4.149831542859
 C    0.962457541362   -0.942146032570   -4.161703999832
 N    0.759380703949    0.419492100944   -4.168539160174
 H    1.563207829200    1.039452640699   -4.250527182596
 N    2.287912295599   -1.360820754250   -4.240051303067
 H    2.942448500931   -0.829017529850   -3.672410526337
 H    2.366717382990   -2.361520898185   -4.078467965078
 C   -0.499893038368    1.105525804475   -4.155585373497
 O   -0.527473407473    2.333698889252   -4.159673501925
 C   -1.572678164344    0.131832415201   -4.149384175557
 N   -2.943751466113    0.318163460514   -4.149459360273
 C   -3.437274960624   -0.920439553531   -4.159789459938
 H   -4.494772873892   -1.174586175363   -4.162736104364
 H   -2.576663136372   -2.895433768627   -4.174491002763
CS    0.835886089088    0.391880244246    4.731089175404
