17

 N   -2.453577850380   -1.888124629104   -4.399847346014
 C   -1.243389783536   -1.232918425428   -4.395885722046
 N   -0.009977369233   -1.831596119890   -4.383847437141
 C    0.960445830823   -0.941419978279   -4.395719894114
 N    0.757368993410    0.420218155235   -4.402555054456
 H    1.561196118661    1.040178694990   -4.484543076878
 N    2.285900585060   -1.360094699959   -4.474067197349
 H    2.940436790392   -0.828291475559   -3.906426420619
 H    2.364705672451   -2.360794843894   -4.312483859360
 C   -0.501904748907    1.106251858766   -4.389601267779
 O   -0.529485118012    2.334424943543   -4.393689396207
 C   -1.574689874883    0.132558469492   -4.383400069839
 N   -2.945763176652    0.318889514805   -4.383475254555
 C   -3.439286671163   -0.919713499240   -4.393805354220
 H   -4.496784584431   -1.173860121072   -4.396751998646
 H   -2.578674846911   -2.894707714336   -4.408506897045
CS    0.838172433894    0.391055070632    4.997052401098
