17

 N   -2.453980192488   -1.887979418246   -4.446650524870
 C   -1.243792125644   -1.232773214570   -4.442688900902
 N   -0.010379711341   -1.831450909032   -4.430650615997
 C    0.960043488715   -0.941274767421   -4.442523072970
 N    0.756966651302    0.420363366093   -4.449358233312
 H    1.560793776553    1.040323905848   -4.531346255734
 N    2.285498242952   -1.359949489101   -4.520870376205
 H    2.940034448284   -0.828146264701   -3.953229599475
 H    2.364303330343   -2.360649633036   -4.359287038216
 C   -0.502307091015    1.106397069624   -4.436404446635
 O   -0.529887460120    2.334570154401   -4.440492575063
 C   -1.575092216991    0.132703680350   -4.430203248695
 N   -2.946165518760    0.319034725663   -4.430278433411
 C   -3.439689013271   -0.919568288382   -4.440608533076
 H   -4.497186926539   -1.173714910214   -4.443555177502
 H   -2.579077189019   -2.894562503478   -4.455310075901
CS    0.838629702855    0.390890035909    5.050245046237
