17

 N   -2.454382534596   -1.887834207388   -4.493453703727
 C   -1.244194467752   -1.232628003712   -4.489492079759
 N   -0.010782053449   -1.831305698174   -4.477453794854
 C    0.959641146607   -0.941129556563   -4.489326251827
 N    0.756564309194    0.420508576951   -4.496161412169
 H    1.560391434445    1.040469116706   -4.578149434591
 N    2.285095900844   -1.359804278243   -4.567673555062
 H    2.939632106176   -0.828001053843   -4.000032778332
 H    2.363900988235   -2.360504422178   -4.406090217073
 C   -0.502709433123    1.106542280482   -4.483207625492
 O   -0.530289802228    2.334715365259   -4.487295753920
 C   -1.575494559099    0.132848891208   -4.477006427552
 N   -2.946567860868    0.319179936521   -4.477081612268
 C   -3.440091355379   -0.919423077524   -4.487411711933
 H   -4.497589268647   -1.173569699356   -4.490358356359
 H   -2.579479531127   -2.894417292620   -4.502113254758
CS    0.839086971816    0.390725001186    5.103437691375
