17

 N   -2.455187218812   -1.887543785672   -4.587060061440
 C   -1.244999151968   -1.232337581996   -4.583098437472
 N   -0.011586737665   -1.831015276458   -4.571060152567
 C    0.958836462391   -0.940839134847   -4.582932609540
 N    0.755759624978    0.420798998667   -4.589767769882
 H    1.559586750229    1.040759538422   -4.671755792304
 N    2.284291216628   -1.359513856527   -4.661279912775
 H    2.938827421960   -0.827710632127   -4.093639136045
 H    2.363096304019   -2.360214000462   -4.499696574786
 C   -0.503514117339    1.106832702198   -4.576813983205
 O   -0.531094486444    2.335005786975   -4.580902111633
 C   -1.576299243315    0.133139312924   -4.570612785265
 N   -2.947372545084    0.319470358237   -4.570687969981
 C   -3.440896039595   -0.919132655808   -4.581018069646
 H   -4.498393952863   -1.173279277640   -4.583964714072
 H   -2.580284215343   -2.894126870904   -4.595719612471
CS    0.840001509738    0.390394931741    5.209822981653
