17

 N   -2.455589560920   -1.887398574814   -4.633863240296
 C   -1.245401494076   -1.232192371138   -4.629901616328
 N   -0.011989079773   -1.830870065600   -4.617863331423
 C    0.958434120283   -0.940693923989   -4.629735788396
 N    0.755357282870    0.420944209525   -4.636570948738
 H    1.559184408121    1.040904749280   -4.718558971160
 N    2.283888874520   -1.359368645669   -4.708083091631
 H    2.938425079852   -0.827565421269   -4.140442314901
 H    2.362693961911   -2.360068789604   -4.546499753642
 C   -0.503916459447    1.106977913056   -4.623617162061
 O   -0.531496828552    2.335150997833   -4.627705290489
 C   -1.576701585423    0.133284523782   -4.617415964121
 N   -2.947774887192    0.319615569095   -4.617491148837
 C   -3.441298381703   -0.918987444950   -4.627821248502
 H   -4.498796294971   -1.173134066782   -4.630767892928
 H   -2.580686557451   -2.893981660046   -4.642522791327
CS    0.840458778699    0.390229897018    5.263015626792
