25

 N    2.667907206007    3.005797462389    0.050976817889
 C    3.877397206007    3.690847462389    0.055576817889
 H    3.798317206007    4.777547462389    0.083656817889
 C    2.580057206007    1.639487462389    0.018766817889
 O    1.481217206007    1.041427462389    0.014196817889
 N    3.781747206007    0.993247462389   -0.007963182111
 H    3.757127206007   -0.024172537611   -0.032873182111
 C    5.088717206007    1.573597462389   -0.006453182111
 O    6.069707206007    0.844837462389   -0.033683182111
 C    5.067167206007    3.033047462389    0.028426817889
 H    6.013537206007    3.570737462389    0.033256817889
 H    1.789357206007    3.511337462389    0.071106817889
NA   -0.278782793993   -0.196012537611   -0.002593182111
 O   -1.424007113202   -1.001209345317   -0.013518361838
 C   -2.522851346909   -1.599265856346   -0.018088183178
 N   -2.610691890821   -2.965588092015   -0.049793502325
 H   -1.732136185308   -3.471137771918   -0.069551686945
 C   -3.820184629665   -3.650635236134   -0.054389796324
 H   -3.741100620764   -4.737350689356   -0.082038428570
 C   -5.009954299118   -2.992826057877   -0.027750135124
 H   -5.956323696196   -3.530512642473   -0.032574305433
 C   -5.031507182784   -1.533368637768    0.006570594675
 O   -6.012492132693   -0.804590824345    0.033317488249
 N   -3.724545570842   -0.953007987020    0.008138682804
 H   -3.699923179068    0.064408789255    0.032658088952
