25

 N    2.779190941592    3.084040882109    0.052012944162
 C    3.988680941592    3.769090882109    0.056612944162
 H    3.909600941592    4.855790882109    0.084692944162
 C    2.691340941592    1.717730882109    0.019802944162
 O    1.592500941592    1.119670882109    0.015232944162
 N    3.893030941592    1.071490882109   -0.006927055838
 H    3.868410941592    0.054070882109   -0.031837055838
 C    5.200000941592    1.651840882109   -0.005417055838
 O    6.180990941592    0.923080882109   -0.032647055838
 C    5.178450941592    3.111290882109    0.029462944162
 H    6.124820941592    3.648980882109    0.034292944162
 H    1.900640941592    3.589580882109    0.072142944162
NA   -0.167499058408   -0.117769117891   -0.001557055838
 O   -1.558128588876   -1.095508098677   -0.014823345506
 C   -2.656972822583   -1.693564609705   -0.019393166846
 N   -2.744815160517   -3.059881994854   -0.051301893015
 H   -1.866260795987   -3.565428051297   -0.071211834773
 C   -3.954307845946   -3.744929205560   -0.055902316700
 H   -3.875225468622   -4.831640329240   -0.083725236510
 C   -5.144075692229   -3.087124915865   -0.029061278902
 H   -6.090445149541   -3.624811363129   -0.033888938168
 C   -5.165626621039   -1.627672821756    0.005486410866
 O   -6.146609784581   -0.898899778980    0.032428099195
 N   -3.858665250626   -1.047311572849    0.007034294938
 H   -3.834041446370   -0.029898575338    0.031708590473
