25

 N    2.816285522052    3.110122016624    0.052358560787
 C    4.025775522052    3.795172016624    0.056958560787
 H    3.946695522052    4.881872016624    0.085038560787
 C    2.728435522052    1.743812016624    0.020148560787
 O    1.629595522052    1.145752016624    0.015578560787
 N    3.930125522052    1.097572016624   -0.006581439213
 H    3.905505522052    0.080152016624   -0.031491439213
 C    5.237095522052    1.677922016624   -0.005071439213
 O    6.218085522052    0.949162016624   -0.032301439213
 C    5.215545522052    3.137372016624    0.029808560787
 H    6.161915522052    3.675062016624    0.034638560787
 H    1.937735522052    3.615662016624    0.072488560787
NA   -0.130404477948   -0.091687983376   -0.001211439213
 O   -1.602835745503   -1.126941021855   -0.015258098862
 C   -2.701679979209   -1.724997532884   -0.019827920201
 N   -2.789522901844   -3.091313340346   -0.051802524554
 H   -1.910968974357   -3.596858218222   -0.071761616457
 C   -3.999015570048   -3.776360572480   -0.056404285743
 H   -3.919933724287   -4.863070288167   -0.084283652702
 C   -5.188782822226   -3.118557872726   -0.029498027366
 H   -6.135152299110   -3.656244275397   -0.034326816611
 C   -5.210333113822   -1.659107511079    0.005123168770
 O   -6.191315695298   -0.930336019837    0.032127945991
 N   -3.903371821998   -1.078746067776    0.006664509284
 H   -3.878747557486   -0.061334299234    0.031388969415
