25

 N    5.858043329101    5.248769061191    0.080951220834
 C    7.067533329101    5.933819061191    0.085551220834
 H    6.988453329101    7.020519061191    0.113631220834
 C    5.770193329102    3.882459061191    0.048741220834
 O    4.671353329101    3.284399061191    0.044171220834
 N    6.971883329101    3.236219061191    0.022011220834
 H    6.947263329102    2.218799061191   -0.002898779166
 C    8.278853329101    3.816569061191    0.023521220834
 O    9.259843329101    3.087809061191   -0.003708779166
 C    8.257303329102    5.276019061191    0.058401220834
 H    9.203673329101    5.813709061191    0.063231220834
 H    4.979493329101    5.754309061191    0.101081220834
NA    2.911353329101    2.046959061191    0.027381220834
 O   -5.268820379536   -3.704446708137   -0.050655777216
 C   -6.367664613242   -4.302503219165   -0.055225598556
 N   -6.455540053033   -5.668733370470   -0.090591130474
 H   -5.577010427596   -6.174214265572   -0.113080112580
 C   -7.665031883685   -6.353781615399   -0.095261741256
 H   -7.585979473479   -7.440415046286   -0.126046590139
 C   -8.854766158791   -5.696065158174   -0.064998406438
 H   -9.801136684602   -6.233749189169   -0.069885357214
 C   -8.876280949889   -4.236708934403   -0.026593637131
 O   -9.857231252268   -3.508021564838    0.003658491721
 N   -7.569323943791   -3.656337043071   -0.025389107855
 H   -7.544674145074   -2.638991920187    0.001917456665
