25

 N    2.927569269010    3.188365404658    0.053396099080
 C    4.137059269010    3.873415404658    0.057996099080
 H    4.057979269010    4.960115404658    0.086076099080
 C    2.839719269010    1.822055404658    0.021186099080
 O    1.740879269010    1.223995404658    0.016616099080
 N    4.041409269010    1.175815404658   -0.005543900920
 H    4.016789269010    0.158395404658   -0.030453900920
 C    5.348379269010    1.756165404658   -0.004033900920
 O    6.329369269010    1.027405404658   -0.031263900920
 C    5.326829269010    3.215615404658    0.030846099080
 H    6.273199269010    3.753305404658    0.035676099080
 H    2.049019269010    3.693905404658    0.073526099080
NA   -0.019120730990   -0.013444595342   -0.000173900920
 O   -1.736957209804   -1.221239806900   -0.016561670510
 C   -2.835801443510   -1.819296317929   -0.021131491850
 N   -2.923646081743   -3.185607505036   -0.053298238979
 H   -2.045093436590   -3.691148931426   -0.073400684032
 C   -4.133138699915   -3.870654799290   -0.057903901201
 H   -4.054058413307   -4.957360392252   -0.085947904008
 C   -5.322904209169   -3.212856755442   -0.030807418052
 H   -6.269273743310   -3.750543027727   -0.035639503030
 C   -5.344452630816   -1.753411467751    0.004028169516
 O   -6.325433504811   -1.024644519786    0.031216954145
 N   -4.037491569226   -1.173049455594    0.005550424860
 H   -4.012865954519   -0.155641285833    0.030421196914
