25

 N    2.964663853139    3.214446528985    0.053742166734
 C    4.174153853139    3.899496528985    0.058342166734
 H    4.095073853139    4.986196528985    0.086422166734
 C    2.876813853139    1.848136528985    0.021532166734
 O    1.777973853139    1.250076528985    0.016962166734
 N    4.078503853139    1.201896528985   -0.005197833266
 H    4.053883853139    0.184476528985   -0.030107833266
 C    5.385473853139    1.782246528985   -0.003687833266
 O    6.366463853139    1.053486528985   -0.030917833266
 C    5.363923853139    3.241696528985    0.031192166734
 H    6.310293853139    3.779386528985    0.036022166734
 H    2.086113853139    3.719986528985    0.073872166734
NA    0.017973853139    0.012636528985    0.000172166734
 O   -1.781664362761   -1.252672740267   -0.016995972837
 C   -2.880508596467   -1.850729251296   -0.021565794177
 N   -2.968353794058   -3.217038934772   -0.053794821450
 H   -2.089801566995   -3.722579237930   -0.073943732236
 C   -4.177846396078   -3.902086249039   -0.058401748138
 H   -4.098766617650   -4.988790500532   -0.086499115133
 C   -5.367611337150   -3.244289720285   -0.031243606540
 H   -6.313980889907   -3.781975950205   -0.036076759777
 C   -5.389159149031   -1.784846083949    0.003661472738
 O   -6.370139466438   -1.056080614376    0.030909900550
 N   -4.082198162393   -1.204483886810    0.005177541920
 H   -4.057572107548   -0.187076888117    0.030095738744
