25

 N    3.075947610757    3.292689887516    0.054781002920
 C    4.285437610757    3.977739887516    0.059381002920
 H    4.206357610757    5.064439887516    0.087461002920
 C    2.988097610757    1.926379887516    0.022571002920
 O    1.889257610757    1.328319887516    0.018001002920
 N    4.189787610757    1.280139887516   -0.004158997080
 H    4.165167610757    0.262719887516   -0.029068997080
 C    5.496757610757    1.860489887516   -0.002648997080
 O    6.477747610757    1.131729887516   -0.029878997080
 C    5.475207610757    3.319939887516    0.032231002920
 H    6.421577610757    3.857629887516    0.037061002920
 H    2.197397610757    3.798229887516    0.074911002920
NA    0.129257610757    0.090879887516    0.001211002920
 O   -1.915785816402   -1.346971554816   -0.018298246592
 C   -3.014630050108   -1.945028065845   -0.022868067932
 N   -3.102476889566   -3.311333343551   -0.055278884160
 H   -2.223925889701   -3.816870355554   -0.075563423356
 C   -4.311969444630   -3.996380715893   -0.059889501706
 H   -4.232891157374   -5.083081037353   -0.088142632931
 C   -5.501732718168   -3.338588626202   -0.032551385823
 H   -6.448102325417   -3.876274732172   -0.037387657186
 C   -5.523278739982   -1.879149828774    0.002556532193
 O   -6.504257423994   -1.150388690592    0.029979051947
 N   -4.216317973030   -1.298787090019    0.004054544653
 H   -4.191690626494   -0.281383522368    0.029111169207
