25

 N    3.113042198328    3.318771002348    0.055127485638
 C    4.322532198328    4.003821002348    0.059727485638
 H    4.243452198328    5.090521002348    0.087807485638
 C    3.025192198328    1.952461002348    0.022917485638
 O    1.926352198328    1.354401002348    0.018347485638
 N    4.226882198328    1.306221002348   -0.003812514362
 H    4.202262198328    0.288801002348   -0.028722514362
 C    5.533852198328    1.886571002348   -0.002302514362
 O    6.514842198328    1.157811002348   -0.029532514362
 C    5.512302198328    3.346021002348    0.032577485638
 H    6.458672198328    3.883711002348    0.037407485638
 H    2.234492198328    3.824311002348    0.075257485638
NA    0.166352198328    0.116961002348    0.001557485638
 O   -1.960492965918   -1.378404497677   -0.018732133855
 C   -3.059337199624   -1.976461008705   -0.023301955195
 N   -3.147184574606   -3.342764851873   -0.055771740437
 H   -2.268633975009   -3.848300792266   -0.076100275011
 C   -4.356677114497   -4.027812242944   -0.060383555236
 H   -4.277599313464   -5.114511284956   -0.088687213524
 C   -5.546439844215   -3.370021598537   -0.032987058987
 H   -6.492809469191   -3.907707664208   -0.037824341812
 C   -5.567985282092   -1.910584376775    0.002186656211
 O   -6.548963433452   -1.181824648776    0.029665648204
 N   -4.261024586694   -1.330221461794    0.003678811405
 H   -4.236396818924   -0.312819011213    0.028780339381
