25

 N    3.150136786724    3.344852114909    0.055474066949
 C    4.359626786724    4.029902114909    0.060074066949
 H    4.280546786724    5.116602114909    0.088154066949
 C    3.062286786724    1.978542114909    0.023264066949
 O    1.963446786724    1.380482114909    0.018694066949
 N    4.263976786724    1.332302114909   -0.003465933051
 H    4.239356786724    0.314882114909   -0.028375933051
 C    5.570946786724    1.912652114909   -0.001955933051
 O    6.551936786724    1.183892114909   -0.029185933051
 C    5.549396786724    3.372102114909    0.032924066949
 H    6.495766786724    3.909792114909    0.037754066949
 H    2.271586786724    3.850392114909    0.075604066949
NA    0.203446786724    0.143042114909    0.001904066949
 O   -2.005200114608   -1.409837442810   -0.019165922524
 C   -3.104044348314   -2.007893953838   -0.023735743864
 N   -3.191892253085   -3.374196379014   -0.056263711599
 H   -2.313342049467   -3.879731260161   -0.076635654744
 C   -4.401384778034   -4.059243788512   -0.060876707684
 H   -4.322307457943   -5.145941565926   -0.089230219108
 C   -5.591146969790   -3.401454572674   -0.033422609741
 H   -6.537516612282   -3.939140598538   -0.038260890536
 C   -5.612691829949   -1.942018908446    0.001816025044
 O   -6.593669454414   -1.213260574299    0.029350736055
 N   -4.305731205290   -1.361655819333    0.003302401099
 H   -4.281103020833   -0.344254472893    0.028448233578
