25

 N    3.409798927590    3.527419842364    0.057902738448
 C    4.619288927590    4.212469842364    0.062502738448
 H    4.540208927590    5.299169842364    0.090582738448
 C    3.321948927590    2.161109842364    0.025692738448
 O    2.223108927590    1.563049842364    0.021122738448
 N    4.523638927590    1.514869842364   -0.001037261552
 H    4.499018927590    0.497449842364   -0.025947261552
 C    5.830608927590    2.095219842364    0.000472738448
 O    6.811598927590    1.366459842364   -0.026757261552
 C    5.809058927590    3.554669842364    0.035352738448
 H    6.755428927590    4.092359842364    0.040182738448
 H    2.531248927590    4.032959842364    0.078032738448
NA    0.463108927590    0.325609842364    0.004332738448
 O   -2.318150133346   -1.629868119207   -0.022199840889
 C   -3.416994367052   -2.227924630236   -0.026769662229
 N   -3.504845826815   -3.594217570190   -0.059684147621
 H   -2.626298280253   -4.099745365890   -0.080344462383
 C   -4.714338253224   -4.279265100777   -0.064304991291
 H   -4.635264158550   -5.365954421327   -0.092989686760
 C   -5.904096836055   -3.621485439775   -0.036468234086
 H   -6.850466595509   -4.159171200078   -0.041313144566
 C   -5.925637818704   -2.162060195336   -0.000798325764
 O   -6.906611908901   -1.433311183283    0.027106537506
 N   -4.618677667504   -1.581695942949    0.000649658379
 H   -4.594046687878   -0.564301981197    0.026089814294
