25

 N    3.817839505591    3.814311792841    0.061727382392
 C    5.027329505591    4.499361792841    0.066327382392
 H    4.948249505591    5.586061792841    0.094407382392
 C    3.729989505591    2.448001792841    0.029517382392
 O    2.631149505591    1.849941792841    0.024947382392
 N    4.931679505591    1.801761792841    0.002787382392
 H    4.907059505591    0.784341792841   -0.022122617608
 C    6.238649505591    2.382111792841    0.004297382392
 O    7.219639505591    1.653351792841   -0.022932617608
 C    6.217099505591    3.841561792841    0.039177382392
 H    7.163469505591    4.379251792841    0.044007382392
 H    2.939289505591    4.319851792841    0.081857382392
NA    0.871149505591    0.612501792841    0.008157382392
 O   -2.809928663296   -1.975630803357   -0.026959266731
 C   -3.908772897002   -2.573687314385   -0.031529088071
 N   -3.996629448481   -3.939966755345   -0.064985861293
 H   -3.118085707409   -4.445484467491   -0.086050764080
 C   -5.206121738746   -4.625014451945   -0.069617715397
 H   -5.127052258503   -5.711691743655   -0.098767064919
 C   -6.395875155227   -3.967248385701   -0.041244083830
 H   -7.342245080567   -4.504933770140   -0.046098295755
 C   -6.417410581620   -2.507837973592   -0.004969094665
 O   -7.398379613578   -1.779102223575    0.023455095479
 N   -5.110451105025   -1.927472070134   -0.003574974585
 H   -5.085816124532   -0.910088614720    0.022278119716
