25

 N    3.929123313121    3.892555015600    0.062771985413
 C    5.138613313121    4.577605015600    0.067371985413
 H    5.059533313121    5.664305015600    0.095451985413
 C    3.841273313121    2.526245015600    0.030561985413
 O    2.742433313121    1.928185015600    0.025991985413
 N    5.042963313121    1.880005015600    0.003831985413
 H    5.018343313121    0.862585015600   -0.021078014587
 C    6.349933313121    2.460355015600    0.005341985413
 O    7.330923313121    1.731595015600   -0.021888014587
 C    6.328383313121    3.919805015600    0.040221985413
 H    7.274753313121    4.457495015600    0.045051985413
 H    3.050573313121    4.398095015600    0.082901985413
NA    0.982433313121    0.690745015600    0.009201985413
 O   -2.944050067025   -2.069929753678   -0.028255773651
 C   -4.042894300731   -2.667986264706   -0.032825594990
 N   -4.130752146152   -4.034262290686   -0.066418152681
 H   -3.252209372131   -4.539777451923   -0.087584361023
 C   -5.340244402712   -4.719310028146   -0.071052763746
 H   -5.261176094181   -5.805984277992   -0.100318458830
 C   -6.529996506754   -4.061547400511   -0.042544703218
 H   -7.476366473956   -4.599232690237   -0.047401244137
 C   -6.551530520686   -2.602140741284   -0.006118206704
 O   -7.532498267891   -1.873408345436    0.022436018643
 N   -5.244571214896   -2.021774420940   -0.004737573723
 H   -5.219935218138   -1.004393622834    0.021218916977
