25

 N    4.077501731414    3.996879290511    0.064165697506
 C    5.286991731414    4.681929290511    0.068765697506
 H    5.207911731414    5.768629290511    0.096845697506
 C    3.989651731414    2.630569290511    0.031955697506
 O    2.890811731414    2.032509290511    0.027385697506
 N    5.191341731414    1.984329290511    0.005225697506
 H    5.166721731414    0.966909290511   -0.019684302494
 C    6.498311731414    2.564679290511    0.006735697506
 O    7.479301731414    1.835919290511   -0.020494302494
 C    6.476761731414    4.024129290511    0.041615697506
 H    7.423131731414    4.561819290511    0.046445697506
 H    3.198951731414    4.502419290511    0.084295697506
NA    1.130811731414    0.795069290511    0.010595697506
 O   -3.122878597078   -2.195661709539   -0.029983541480
 C   -4.221722830784   -2.793718220568   -0.034553362820
 N   -4.309582343543   -4.159989855008   -0.068319722444
 H   -3.431040815625   -4.665501735888   -0.089615600264
 C   -5.519074557188   -4.845037644354   -0.072957862394
 H   -5.440007757951   -5.931707983166   -0.102372477902
 C   -6.708824970326   -4.187279438301   -0.044277734973
 H   -7.655194991302   -4.724964606445   -0.049137256959
 C   -6.730357163931   -2.727877605486   -0.007657311481
 O   -7.711323256027   -1.999149522475    0.021063356816
 N   -5.423398077872   -2.147510749506   -0.006293941753
 H   -5.398760771847   -1.130133368262    0.019794894662
