25

 N    4.151690943947    4.049041418922    0.064862922929
 C    5.361180943947    4.734091418922    0.069462922929
 H    5.282100943947    5.820791418922    0.097542922929
 C    4.063840943947    2.682731418922    0.032652922929
 O    2.965000943947    2.084671418922    0.028082922929
 N    5.265530943947    2.036491418922    0.005922922929
 H    5.240910943947    1.019071418922   -0.018987077071
 C    6.572500943947    2.616841418922    0.007432922929
 O    7.553490943947    1.888081418922   -0.019797077071
 C    6.550950943947    4.076291418922    0.042312922929
 H    7.497320943947    4.613981418922    0.047142922929
 H    3.273140943947    4.554581418922    0.084992922929
NA    1.205000943947    0.847231418922    0.011292922929
 O   -3.212292858717   -2.258527696515   -0.030847056018
 C   -4.311137092424   -2.856584207544   -0.035416877358
 N   -4.398997415053   -4.222853712457   -0.069267191270
 H   -3.520456492394   -4.728364002647   -0.090625705383
 C   -5.608489608059   -4.907901526700   -0.073907035843
 H   -5.529423541710   -5.994569969266   -0.103393586723
 C   -6.798239199987   -4.250145464603   -0.045143792241
 H   -7.744609247016   -4.787830573877   -0.050004754217
 C   -6.819770509304   -2.790745972330   -0.008429693139
 O   -7.800735797627   -2.062019980481    0.020371374714
 N   -5.512811529830   -2.210378856797   -0.007074662346
 H   -5.488173587965   -1.193003132308    0.019078103102
