25

 N    4.411353204536    4.231608823862    0.067305014086
 C    5.620843204536    4.916658823862    0.071905014086
 H    5.541763204536    6.003358823862    0.099985014086
 C    4.323503204536    2.865298823862    0.035095014086
 O    3.224663204536    2.267238823862    0.030525014086
 N    5.525193204536    2.219058823862    0.008365014086
 H    5.500573204536    1.201638823862   -0.016544985914
 C    6.832163204536    2.799408823862    0.009875014086
 O    7.813153204536    2.070648823862   -0.017354985914
 C    6.810613204536    4.258858823862    0.044755014086
 H    7.756983204536    4.796548823862    0.049585014086
 H    3.532803204536    4.737148823862    0.087435014086
NA    1.464663204536    1.029798823862    0.013735014086
 O   -3.525242757733   -2.478558695428   -0.033867554725
 C   -4.624086991439   -3.076615206457   -0.038437376065
 N   -4.711950030906   -4.442877584153   -0.072567153216
 H   -3.833411138658   -4.948382550571   -0.094134168185
 C   -5.921442155634   -5.127925480489   -0.077212672098
 H   -5.842378546867   -6.214587577892   -0.106938678146
 C   -7.111188993189   -4.470176593258   -0.048172755135
 H   -8.057559127299   -5.007861505907   -0.053038510469
 C   -7.132717335519   -3.010784935081   -0.011146832876
 O   -8.113679928187   -2.282065941113    0.017921865353
 N   -5.825758712922   -2.430416951732   -0.009819560325
 H   -5.801118638530   -1.413046771523    0.016546009176
