25

 N    4.448447815218    4.257689876332    0.067654100725
 C    5.657937815218    4.942739876332    0.072254100725
 H    5.578857815218    6.029439876332    0.100334100725
 C    4.360597815218    2.891379876332    0.035444100725
 O    3.261757815218    2.293319876332    0.030874100725
 N    5.562287815218    2.245139876332    0.008714100725
 H    5.537667815218    1.227719876332   -0.016195899275
 C    6.869257815218    2.825489876332    0.010224100725
 O    7.850247815218    2.096729876332   -0.017005899275
 C    6.847707815218    4.284939876332    0.045104100725
 H    7.794077815218    4.822629876332    0.049934100725
 H    3.569897815218    4.763229876332    0.087784100725
NA    1.501757815218    1.055879876332    0.014084100725
 O   -3.569949884137   -2.509991700651   -0.034298838066
 C   -4.668794117843   -3.108048211680   -0.038868659406
 N   -4.756657531148   -4.474309610639   -0.073036632963
 H   -3.878118918282   -4.979813845980   -0.094632145361
 C   -5.966149646595   -5.159357518101   -0.077682927402
 H   -5.887086375871   -6.246018744316   -0.107441661640
 C   -7.155896105206   -4.501609616075   -0.048605195349
 H   -8.102266251261   -5.039294501769   -0.053471605827
 C   -7.177424039219   -3.042219033782   -0.011536653800
 O   -8.158386261051   -2.313501000679    0.017568623543
 N   -5.870465465649   -2.461850931364   -0.010213175180
 H   -5.845825097878   -1.444481512441    0.016181479898
