25

 N    4.522637038034    4.309851977432    0.068352427675
 C    5.732127038034    4.994901977432    0.072952427675
 H    5.653047038034    6.081601977432    0.101032427675
 C    4.434787038034    2.943541977432    0.036142427675
 O    3.335947038034    2.345481977432    0.031572427675
 N    5.636477038034    2.297301977432    0.009412427675
 H    5.611857038034    1.279881977432   -0.015497572325
 C    6.943447038034    2.877651977432    0.010922427675
 O    7.924437038034    2.148891977432   -0.016307572325
 C    6.921897038034    4.337101977432    0.045802427675
 H    7.868267038034    4.874791977432    0.050632427675
 H    3.644087038034    4.815391977432    0.088482427675
NA    1.575947038034    1.108041977432    0.014782427675
 O   -3.659364135494   -2.572857714937   -0.035161251077
 C   -4.758208369200   -3.170914225966   -0.039731072416
 N   -4.846072519941   -4.537173695629   -0.073974212883
 H   -3.967534458185   -5.042676489868   -0.095625805518
 C   -6.055564617159   -5.222221624923   -0.078622033547
 H   -5.976502013183   -6.308881133951   -0.108445173755
 C   -7.245310328305   -4.564475664885   -0.049469884982
 H   -8.191680497897   -5.102160497483   -0.054337584720
 C   -7.266837456824   -3.105087203440   -0.012317472707
 O   -8.247798947199   -2.376371064324    0.016859788863
 N   -5.959878979907   -2.524718866385   -0.011001460181
 H   -5.935238033457   -1.507350948064    0.015450432554
