25

 N    4.633920875789    4.388095119753    0.069400290144
 C    5.843410875789    5.073145119753    0.074000290144
 H    5.764330875789    6.159845119753    0.102080290144
 C    4.546070875789    3.021785119753    0.037190290144
 O    3.447230875789    2.423725119753    0.032620290144
 N    5.747760875789    2.375545119753    0.010460290144
 H    5.723140875789    1.358125119753   -0.014449709856
 C    7.054730875789    2.955895119753    0.011970290144
 O    8.035720875789    2.227135119753   -0.015259709856
 C    7.033180875789    4.415345119753    0.046850290144
 H    7.979550875789    4.953035119753    0.051680290144
 H    3.755370875789    4.893635119753    0.089530290144
NA    1.687230875789    1.186285119753    0.015830290144
 O   -3.793485508998   -2.667156745696   -0.036454498550
 C   -4.892329742704   -3.265213256725   -0.041024319890
 N   -4.980194974678   -4.631469900917   -0.075377242764
 H   -4.101657720956   -5.136970584654   -0.097110741435
 C   -6.189687045357   -5.316517861940   -0.080027292512
 H   -6.110625418768   -6.403174856387   -0.109944498606
 C   -7.379431660664   -4.658774745835   -0.050766457509
 H   -8.325801864705   -5.196459500751   -0.055636040227
 C   -7.400957608068   -3.199389390518   -0.013491550765
 O   -8.381918026124   -2.470676024979    0.015790844854
 N   -6.093999272732   -2.619020710006   -0.012186442576
 H   -6.069357477918   -1.601654989205    0.014349046619
