25

 N    4.708110103239    4.440257208617    0.070099104106
 C    5.917600103239    5.125307208617    0.074699104106
 H    5.838520103239    6.212007208617    0.102779104106
 C    4.620260103239    3.073947208617    0.037889104106
 O    3.521420103239    2.475887208617    0.033319104106
 N    5.821950103239    2.427707208617    0.011159104106
 H    5.797330103239    1.410287208617   -0.013750895894
 C    7.128920103239    3.008057208617    0.012669104106
 O    8.109910103239    2.279297208617   -0.014560895894
 C    7.107370103239    4.467507208617    0.047549104106
 H    8.053740103239    5.005197208617    0.052379104106
 H    3.829560103239    4.945797208617    0.090229104106
NA    1.761420103239    1.238447208617    0.016529104106
 O   -3.882899755721   -2.730022772219   -0.037316424548
 C   -4.981743989427   -3.328079283247   -0.041886245888
 N   -5.069609926111   -4.694334087961   -0.076310450556
 H   -4.191073199035   -5.199833397693   -0.098097130871
 C   -6.279101979613   -5.379382069485   -0.080961947654
 H   -6.200040989927   -6.466037427016   -0.110940230787
 C   -7.468845880752   -4.721640804798   -0.051630542475
 H   -8.415216107205   -5.259325509191   -0.056501347813
 C   -7.490371058282   -3.262257471757   -0.014276099986
 O   -8.471330777527   -2.533545911795    0.015074559238
 N   -6.183412815140   -2.681888567753   -0.012978071987
 H   -6.158770467452   -1.664524277532    0.013611696444
