25

 N    4.930677796015    4.596743447777    0.072196629368
 C    6.140167796015    5.281793447777    0.076796629368
 H    6.061087796015    6.368493447777    0.104876629368
 C    4.842827796015    3.230433447777    0.039986629368
 O    3.743987796015    2.632373447777    0.035416629368
 N    6.044517796015    2.584193447777    0.013256629368
 H    6.019897796015    1.566773447777   -0.011653370632
 C    7.351487796015    3.164543447777    0.014766629368
 O    8.332477796015    2.435783447777   -0.012463370632
 C    7.329937796015    4.623993447777    0.049646629368
 H    8.276307796015    5.161683447777    0.054476629368
 H    4.052127796015    5.102283447777    0.092326629368
NA    1.983987796015    1.394933447777    0.018626629368
 O   -4.151142485463   -2.918620879218   -0.039901119170
 C   -5.249986719169   -3.516677390247   -0.044470940510
 N   -5.337854696262   -4.882926878020   -0.079100347977
 H   -4.459319494014   -5.388422216264   -0.101040125205
 C   -6.547346700551   -5.567974918127   -0.083756011666
 H   -6.468287554395   -6.654625544927   -0.113910120591
 C   -7.737088534174   -4.910239004535   -0.054221452269
 H   -8.683458825350   -5.447923563116   -0.059095777220
 C   -7.758611482350   -3.450861517157   -0.016638045863
 O   -8.739569178666   -2.722155175629    0.012909127521
 N   -6.451653505774   -2.870491967632   -0.015360399979
 H   -6.427009557575   -1.853131812101    0.011385625051
