25

 N    4.967772412939    4.622824483800    0.072546367756
 C    6.177262412939    5.307874483800    0.077146367756
 H    6.098182412939    6.394574483800    0.105226367756
 C    4.879922412939    3.256514483800    0.040336367756
 O    3.781082412939    2.658454483800    0.035766367756
 N    6.081612412939    2.610274483800    0.013606367756
 H    6.056992412939    1.592854483800   -0.011303632244
 C    7.388582412939    3.190624483800    0.015116367756
 O    8.369572412939    2.461864483800   -0.012113632244
 C    7.367032412939    4.650074483800    0.049996367756
 H    8.313402412939    5.187764483800    0.054826367756
 H    4.089222412939    5.128364483800    0.092676367756
NA    2.021082412939    1.421014483800    0.018976367756
 O   -4.195849605626   -2.950053900889   -0.040331750762
 C   -5.294693839332   -3.548110411917   -0.044901572102
 N   -5.382562146150   -4.914359041731   -0.079563976676
 H   -4.504027190310   -5.419853739124   -0.101528372258
 C   -6.592054142559   -5.599407091198   -0.084220310366
 H   -6.512995294239   -6.686056954728   -0.114402692501
 C   -7.781795642113   -4.941672041028   -0.054653083281
 H   -8.728165943724   -5.479356576110   -0.059527974193
 C   -7.803318229992   -3.482295496975   -0.017032858921
 O   -8.784275599461   -2.753589997441    0.012545914415
 N   -6.496360296442   -2.901925843352   -0.015758490527
 H   -6.471716089640   -1.884566354961    0.011012660940
