25

 N    5.079056266108    4.701067585584    0.073595828708
 C    6.288546266108    5.386117585584    0.078195828708
 H    6.209466266108    6.472817585584    0.106275828708
 C    4.991206266108    3.334757585584    0.041385828708
 O    3.892366266108    2.736697585584    0.036815828708
 N    6.192896266108    2.688517585584    0.014655828708
 H    6.168276266108    1.671097585584   -0.010254171292
 C    7.499866266108    3.268867585584    0.016165828708
 O    8.480856266108    2.540107585584   -0.011064171292
 C    7.478316266108    4.728317585584    0.051045828708
 H    8.424686266108    5.266007585584    0.055875828708
 H    4.200506266108    5.206607585584    0.093725828708
NA    2.132366266108    1.499257585584    0.020025828708
 O   -4.329970963716   -3.044352972184   -0.041623399752
 C   -5.428815197422   -3.642409483213   -0.046193221091
 N   -5.516684476432   -5.008655585339   -0.080952656236
 H   -4.638150247116   -5.514148394689   -0.102989444010
 C   -6.726176449721   -5.693703662232   -0.085610960120
 H   -6.647118479441   -6.780351277207   -0.115876481831
 C   -7.915916964338   -5.035971155764   -0.055947671150
 H   -8.862287296680   -5.573655621666   -0.060824226313
 C   -7.937438489827   -3.576597390976   -0.018219180719
 O   -8.918394895682   -2.847894371976    0.011452514734
 N   -6.630480683058   -2.996227430770   -0.016954450041
 H   -6.605835713830   -1.978869907801    0.009890587676
