25

 N    5.375813224603    4.909715813320    0.076396090657
 C    6.585303224603    5.594765813320    0.080996090657
 H    6.506223224603    6.681465813320    0.109076090657
 C    5.287963224603    3.543405813320    0.044186090657
 O    4.189123224603    2.945345813320    0.039616090657
 N    6.489653224603    2.897165813320    0.017456090657
 H    6.465033224603    1.879745813320   -0.007453909343
 C    7.796623224603    3.477515813320    0.018966090657
 O    8.777613224603    2.748755813320   -0.008263909343
 C    7.775073224603    4.936965813320    0.053846090657
 H    8.721443224603    5.474655813320    0.058676090657
 H    4.497263224603    5.415255813320    0.096526090657
NA    2.429123224603    1.707905813320    0.022826090657
 O   -4.687627901912   -3.295817205995   -0.045066097646
 C   -5.786472135618   -3.893873717023   -0.049635918986
 N   -5.874343888639   -5.260113399969   -0.084640545316
 H   -4.995811508144   -5.765601414572   -0.106860264382
 C   -7.083835803854   -5.945161545521   -0.089303827814
 H   -7.004780067191   -7.031803451225   -0.119779438860
 C   -8.273573812429   -5.287435498383   -0.059397795489
 H   -9.219944222724   -5.825119788924   -0.064278556118
 C   -8.295092633975   -3.828068792187   -0.021395722330
 O   -9.276046588227   -3.099372071865    0.008510782441
 N   -6.988135149294   -3.247698054097   -0.020155345631
 H   -6.963488240258   -2.230345521899    0.006876398764
