25

 N    5.524191712408    5.014039904879    0.077797083595
 C    6.733681712408    5.699089904879    0.082397083595
 H    6.654601712408    6.785789904879    0.110477083595
 C    5.436341712408    3.647729904879    0.045587083595
 O    4.337501712408    3.049669904879    0.041017083595
 N    6.638031712408    3.001489904879    0.018857083595
 H    6.613411712408    1.984069904879   -0.006052916405
 C    7.945001712408    3.581839904879    0.020367083595
 O    8.925991712408    2.853079904879   -0.006862916405
 C    7.923451712408    5.041289904879    0.055247083595
 H    8.869821712408    5.578979904879    0.060077083595
 H    4.645641712408    5.519579904879    0.097927083595
NA    2.577501712408    1.812229904879    0.024227083595
 O   -4.866456362452   -3.421549345209   -0.046786584631
 C   -5.965300596158   -4.019605856238   -0.051356405971
 N   -6.053173525429   -5.385842493766   -0.086476751614
 H   -5.174642023932   -5.891328233635   -0.108782806097
 C   -7.262665413412   -6.070890671400   -0.091142383813
 H   -7.183610738308   -7.157529869000   -0.121717147644
 C   -8.452402230705   -5.413167688471   -0.061121787450
 H   -9.398772677938   -5.950851895977   -0.066004532866
 C   -8.473919766484   -3.953804331302   -0.022990595426
 O   -9.454872555427   -3.225110598856    0.007026728865
 N   -7.166962434671   -3.373433224511   -0.021761712709
 H   -7.142314603563   -2.356083059805    0.005358148909
