25

 N    5.561286335203    5.040120925573    0.078147416186
 C    6.770776335203    5.725170925573    0.082747416186
 H    6.691696335203    6.811870925573    0.110827416186
 C    5.473436335203    3.673810925573    0.045937416186
 O    4.374596335203    3.075750925573    0.041367416186
 N    6.675126335203    3.027570925573    0.019207416186
 H    6.650506335203    2.010150925573   -0.005702583814
 C    7.982096335203    3.607920925573    0.020717416186
 O    8.963086335203    2.879160925573   -0.006512583814
 C    7.960546335203    5.067370925573    0.055597416186
 H    8.906916335203    5.605060925573    0.060427416186
 H    4.682736335203    5.545660925573    0.098277416186
NA    2.614596335203    1.838310925573    0.024577416186
 O   -4.911163476743   -3.452982382209   -0.047216622020
 C   -6.010007710449   -4.051038893237   -0.051786443360
 N   -6.097880927783   -5.417274785577   -0.086935045873
 H   -5.219349641550   -5.922759968839   -0.109262182131
 C   -7.307372809132   -6.102322971014   -0.091601251833
 H   -7.228318393965   -7.188961506014   -0.122200227242
 C   -8.497109334700   -5.444600737847   -0.061552680702
 H   -9.443479790968   -5.982284925050   -0.066435910773
 C   -8.518626555577   -3.985238200181   -0.023389959845
 O   -9.499579059166   -3.256545198807    0.006654424861
 N   -7.211669261177   -3.404867003205   -0.022163883779
 H   -7.187021204273   -2.387517417780    0.004977494704
