25

 N    5.598380958328    5.066201945410    0.078497781583
 C    6.807870958328    5.751251945410    0.083097781583
 H    6.728790958328    6.837951945410    0.111177781583
 C    5.510530958328    3.699891945410    0.046287781583
 O    4.411690958328    3.101831945410    0.041717781583
 N    6.712220958328    3.053651945410    0.019557781583
 H    6.687600958328    2.036231945410   -0.005352218417
 C    8.019190958328    3.634001945410    0.021067781583
 O    9.000180958328    2.905241945410   -0.006162218417
 C    7.997640958328    5.093451945410    0.055947781583
 H    8.944010958328    5.631141945410    0.060777781583
 H    4.719830958328    5.571741945410    0.098627781583
NA    2.651690958328    1.864391945410    0.024927781583
 O   -4.955870590704   -3.484415420064   -0.047646626603
 C   -6.054714824410   -4.082471931093   -0.052216447943
 N   -6.142588327464   -5.448707084548   -0.087393045621
 H   -5.264057254745   -5.954191715913   -0.109741068403
 C   -7.352080202249   -6.133755277703   -0.092059820031
 H   -7.273026044889   -7.220393155727   -0.122682782778
 C   -8.541816438472   -5.476033787945   -0.061983533224
 H   -9.488186903695   -6.013717955024   -0.066867243459
 C   -8.563333347000   -4.016672062860   -0.023789575540
 O   -9.544285567565   -3.287979786359    0.006281618957
 N   -7.256376089697   -3.436300776476   -0.022566280131
 H   -7.231727808841   -2.418951765422    0.004596415935
