25

 N    5.635475581779    5.092282964403    0.078848179332
 C    6.844965581779    5.777332964403    0.083448179332
 H    6.765885581779    6.864032964403    0.111528179332
 C    5.547625581779    3.725972964403    0.046638179332
 O    4.448785581779    3.127912964403    0.042068179332
 N    6.749315581779    3.079732964403    0.019908179332
 H    6.724695581779    2.062312964403   -0.005001820668
 C    8.056285581779    3.660082964403    0.021418179332
 O    9.037275581779    2.931322964403   -0.005811820668
 C    8.034735581779    5.119532964403    0.056298179332
 H    8.981105581779    5.657222964403    0.061128179332
 H    4.756925581779    5.597822964403    0.098978179332
NA    2.688785581779    1.890472964403    0.025278179332
 O   -5.000577704340   -3.515848458765   -0.048076598835
 C   -6.099421938046   -4.113904969794   -0.052646420175
 N   -6.187295724505   -5.480139390589   -0.087850754933
 H   -5.308764863570   -5.985623474707   -0.110219471687
 C   -7.396787592792   -6.165187591380   -0.092518092551
 H   -7.317733691137   -7.251824817982   -0.123164821498
 C   -8.586523542022   -5.507466838758   -0.062414345577
 H   -9.532894016124   -6.045150985888   -0.067298531550
 C   -8.608040140725   -4.048105919417   -0.024189439037
 O   -9.588992080568   -3.319414361669    0.005908318093
 N   -7.301082920208   -3.467734544391   -0.022968898650
 H   -7.276434417221   -2.450386102859    0.004214918473
