25

 N    5.672570205551    5.118363982561    0.079198608988
 C    6.882060205551    5.803413982561    0.083798608988
 H    6.802980205551    6.890113982561    0.111878608988
 C    5.584720205551    3.752053982561    0.046988608988
 O    4.485880205551    3.153993982561    0.042418608988
 N    6.786410205551    3.105813982561    0.020258608988
 H    6.761790205551    2.088393982561   -0.004651391012
 C    8.093380205551    3.686163982561    0.021768608988
 O    9.074370205551    2.957403982561   -0.005461391012
 C    8.071830205551    5.145613982561    0.056648608988
 H    9.018200205551    5.683303982561    0.061478608988
 H    4.794020205551    5.623903982561    0.099328608988
NA    2.725880205551    1.916553982561    0.025628608988
 O   -5.045284817654   -3.547281498300   -0.048506539160
 C   -6.144129051361   -4.145338009329   -0.053076360500
 N   -6.232003118937   -5.511571703613   -0.088308177804
 H   -5.353472468076   -6.017055245075   -0.110697398631
 C   -7.441494980793   -6.196619911957   -0.092976073464
 H   -7.362441332765   -7.283256492622   -0.123646350517
 C   -8.631230645352   -5.538899890278   -0.062845118315
 H   -9.577601128257   -6.076584017631   -0.067729775661
 C   -8.652746936723   -4.079539769929   -0.024589546925
 O   -9.633698598122   -3.350848924890    0.005534529082
 N   -7.345789752687   -3.499168307016   -0.023371736278
 H   -7.321141029369   -2.481820430220    0.003833008082
