25

 N    5.746759454044    5.170526016414    0.079899562277
 C    6.956249454044    5.855576016414    0.084499562277
 H    6.877169454044    6.942276016414    0.112579562277
 C    5.658909454044    3.804216016414    0.047689562277
 O    4.560069454044    3.206156016414    0.043119562277
 N    6.860599454044    3.157976016414    0.020959562277
 H    6.835979454044    2.140556016414   -0.003950437723
 C    8.167569454044    3.738326016414    0.022469562277
 O    9.148559454044    3.009566016414   -0.004760437723
 C    8.146019454044    5.197776016414    0.057349562277
 H    9.092389454044    5.735466016414    0.062179562277
 H    4.868209454044    5.676066016414    0.100029562277
NA    2.800069454044    1.968716016414    0.026329562277
 O   -5.134699043334   -3.610147579833   -0.049366325832
 C   -6.233543277040   -4.208204090862   -0.053936147172
 N   -6.321417900099   -5.574436350260   -0.089222179857
 H   -5.442887664338   -6.079918819960   -0.111651849485
 C   -7.530909749284   -6.259484573471   -0.093891176378
 H   -7.451856602376   -7.346119878441   -0.124607907259
 C   -8.720644851363   -5.601765995401   -0.063706547108
 H   -9.667015351650   -6.139450083713   -0.068592134339
 C   -8.742160535433   -4.142407453118   -0.025390482541
 O   -9.723111646662   -3.413718015663    0.004785513251
 N   -7.435203423455   -3.562035816662   -0.024178056905
 H   -7.410554264788   -2.544689055210    0.003067971042
