11

 H   -2.581660282003    0.048287534421    1.137271316392
 H   -2.698694387393   -0.701811137303   -0.489796938662
 H   -2.581780652416    1.084087440380   -0.346310199949
 C   -2.261738919494    0.126206023853    0.088270343663
 S   -0.452838691476   -0.061818439264   -0.043149417845
 S    0.037658823841    1.635603954920    1.141909584628
 C    1.846559049053    1.447440810517    1.010688498770
 H    2.166482127892    0.489548362503    1.445332415811
 H    2.283514532503    2.275443944372    1.588775902137
 H    2.166599136295    1.525303818777   -0.038280261937
RB    0.229786755122   -0.871006789576   -0.608159783569
