11

 H   -2.689657327947    0.176307888602    1.226660674392
 H   -2.806691433337   -0.573790783122   -0.400407580662
 H   -2.689777698360    1.212107794561   -0.256920841949
 C   -2.369735965438    0.254226378034    0.177659701663
 S   -0.560835737420    0.066201914917    0.046239940155
 S   -0.070338222103    1.763624309101    1.231298942628
 C    1.738562003109    1.575461164698    1.100077856770
 H    2.058485081948    0.617568716684    1.534721773811
 H    2.175517486559    2.403464298553    1.678165260137
 H    2.058602090351    1.653324172958    0.051109096063
RB    0.349331524711   -1.012715885500   -0.707107214143
