11

 H   -2.770655112404    0.272323154237    1.293702692891
 H   -2.887689217794   -0.477775517487   -0.333365562163
 H   -2.770775482817    1.308123060196   -0.189878823450
 C   -2.450733749895    0.350241643669    0.244701720162
 S   -0.641833521877    0.162217180552    0.113281958654
 S   -0.151336006560    1.859639574736    1.298340961127
 C    1.657564218652    1.671476430333    1.167119875269
 H    1.977487297491    0.713583982319    1.601763792310
 H    2.094519702102    2.499479564188    1.745207278636
 H    1.977604305894    1.749339438593    0.118151114562
RB    0.438990101903   -1.118997707443   -0.781317787074
