11

 H   -4.957595292768    2.864735326388    3.103837192389
 H   -5.074629398158    2.114636654664    1.476768937335
 H   -4.957715663181    3.900535232347    1.620255676048
 C   -4.637673930259    2.942653815820    2.054836219660
 S   -2.828773702241    2.754629352703    1.923416458152
 S   -2.338276186924    4.452051746887    3.108475460625
 C   -0.529375961712    4.263888602484    2.977254374767
 H   -0.209452882873    3.305996154470    3.411898291808
 H   -0.092420478262    5.091891736339    3.555341778134
 H   -0.209335874470    4.341751610744    1.928285614060
RB    2.859771686077   -3.988606899903   -2.785003256209
