11

 H   -2.824653635376    0.336333331327    1.338397371891
 H   -2.941687740766   -0.413765340397   -0.288670883163
 H   -2.824774005789    1.372133237286   -0.145184144450
 C   -2.504732272867    0.414251820759    0.289396399162
 S   -0.695832044849    0.226227357642    0.157976637654
 S   -0.205334529532    1.923649751826    1.343035640127
 C    1.603565695680    1.735486607423    1.211814554269
 H    1.923488774519    0.777594159409    1.646458471310
 H    2.040521179130    2.563489741278    1.789901957636
 H    1.923605782922    1.813349615683    0.162845793562
RB    0.498762486697   -1.189852255405   -0.830791502361
