11

 H   -2.932650681320    0.464353685507    1.427786729891
 H   -3.049684786710   -0.285744986217   -0.199281525163
 H   -2.932771051733    1.500153591466   -0.055794786450
 C   -2.612729318811    0.542272174939    0.378785757162
 S   -0.803829090793    0.354247711822    0.247365995654
 S   -0.313331575476    2.051670106006    1.432424998127
 C    1.495568649736    1.863506961603    1.301203912269
 H    1.815491728575    0.905614513589    1.735847829310
 H    1.932524133186    2.691510095458    1.879291315636
 H    1.815608736978    1.941369969863    0.252235151562
RB    0.618307256286   -1.331561351329   -0.929738932936
