11

 H   -2.986649204292    0.528363862598    1.472481408891
 H   -3.103683309682   -0.221734809126   -0.154586846163
 H   -2.986769574705    1.564163768557   -0.011100107450
 C   -2.666727841783    0.606282352030    0.423480436162
 S   -0.857827613765    0.418257888913    0.292060674654
 S   -0.367330098448    2.115680283097    1.477119677127
 C    1.441570126764    1.927517138694    1.345898591269
 H    1.761493205603    0.969624690680    1.780542508310
 H    1.878525610214    2.755520272549    1.923985994636
 H    1.761610214006    2.005380146954    0.296929830562
RB    0.678079641081   -1.402415899291   -0.979212648223
