11

 H   -3.013648465778    0.560368951143    1.494828748391
 H   -3.130682571168   -0.189729720581   -0.132239506663
 H   -3.013768836191    1.596168857102    0.011247232050
 C   -2.693727103269    0.638287440575    0.445827775662
 S   -0.884826875251    0.450262977458    0.314408014154
 S   -0.394329359934    2.147685371642    1.499467016627
 C    1.414570865278    1.959522227239    1.368245930769
 H    1.734493944117    1.001629779225    1.802889847810
 H    1.851526348728    2.787525361094    1.946333334136
 H    1.734610952520    2.037385235499    0.319277170062
RB    0.707965833478   -1.437843173272   -1.003949505867
