11

 H   -3.040647727264    0.592374039688    1.517176087891
 H   -3.157681832654   -0.157724632036   -0.109892167163
 H   -3.040768097677    1.628173945647    0.033594571550
 C   -2.720726364755    0.670292529120    0.468175115162
 S   -0.911826136737    0.482268066003    0.336755353654
 S   -0.421328621420    2.179690460187    1.521814356127
 C    1.387571603792    1.991527315784    1.390593270269
 H    1.707494682631    1.033634867770    1.825237187310
 H    1.824527087242    2.819530449639    1.968680673636
 H    1.707611691034    2.069390324044    0.341624509562
RB    0.737852025875   -1.473270447253   -1.028686363511
