11

 H   -3.121645511722    0.688389305323    1.584218106391
 H   -3.238679617112   -0.061709366401   -0.042850148663
 H   -3.121765882135    1.724189211282    0.100636590050
 C   -2.801724149213    0.766307794755    0.535217133662
 S   -0.992823921195    0.578283331638    0.403797372154
 S   -0.502326405878    2.275705725822    1.588856374627
 C    1.306573819334    2.087542581419    1.457635288769
 H    1.626496898173    1.129650133405    1.892279205810
 H    1.743529302784    2.915545715274    2.035722692136
 H    1.626613906576    2.165405589679    0.408666528062
RB    0.827510603067   -1.579552269196   -1.102896936441
