11

 H   -3.202643296180    0.784404570958    1.651260124891
 H   -3.319677401570    0.034305899234    0.024191869837
 H   -3.202763666593    1.820204476917    0.167678608550
 C   -2.882721933671    0.862323060390    0.602259152162
 S   -1.073821705653    0.674298597273    0.470839390654
 S   -0.583324190336    2.371720991457    1.655898393127
 C    1.225576034876    2.183557847054    1.524677307269
 H    1.545499113715    1.225665399040    1.959321224310
 H    1.662531518326    3.011560980909    2.102764710636
 H    1.545616122118    2.261420855314    0.475708546562
RB    0.917169180258   -1.685834091139   -1.177107509372
