11

 H   -3.229642557666    0.816409659503    1.673607464391
 H   -3.346676663056    0.066310987779    0.046539209337
 H   -3.229762928079    1.852209565462    0.190025948050
 C   -2.909721195157    0.894328148935    0.624606491662
 S   -1.100820967139    0.706303685818    0.493186730154
 S   -0.610323451822    2.403726080002    1.678245732627
 C    1.198576773390    2.215562935599    1.547024646769
 H    1.518499852229    1.257670487585    1.981668563810
 H    1.635532256840    3.043566069454    2.125112050136
 H    1.518616860632    2.293425943859    0.498055886062
RB    0.947055372656   -1.721261365120   -1.201844367016
