11

 H   -3.256641819152    0.848414748048    1.695954803891
 H   -3.373675924542    0.098316076324    0.068886548837
 H   -3.256762189565    1.884214654007    0.212373287550
 C   -2.936720456643    0.926333237480    0.646953831162
 S   -1.127820228625    0.738308774363    0.515534069654
 S   -0.637322713308    2.435731168547    1.700593072127
 C    1.171577511904    2.247568024144    1.569371986269
 H    1.491500590743    1.289675576130    2.004015903310
 H    1.608532995354    3.075571157999    2.147459389636
 H    1.491617599146    2.325431032404    0.520403225562
RB    0.976941565053   -1.756688639101   -1.226581224660
