11

 H   -3.310640342124    0.912424925138    1.740649482891
 H   -3.427674447514    0.162326253414    0.113581227837
 H   -3.310760712537    1.948224831097    0.257067966550
 C   -2.990718979615    0.990343414570    0.691648510162
 S   -1.181818751597    0.802318951453    0.560228748654
 S   -0.691321236280    2.499741345637    1.745287751127
 C    1.117578988932    2.311578201234    1.614066665269
 H    1.437502067771    1.353685753220    2.048710582310
 H    1.554534472382    3.139581335089    2.192154068636
 H    1.437619076174    2.389441209494    0.565097904562
RB    1.036713949847   -1.827543187063   -1.276054939947
