11

 H   -3.499635172526    1.136460544954    1.897080859391
 H   -3.616669277916    0.386361873230    0.270012604337
 H   -3.499755542939    2.172260450913    0.413499343050
 C   -3.179713810017    1.214379034386    0.848079886662
 S   -1.370813581999    1.026354571269    0.716660125154
 S   -0.880316066682    2.723776965453    1.901719127627
 C    0.928584158530    2.535613821050    1.770498041769
 H    1.248507237369    1.577721373036    2.205141958810
 H    1.365539641980    3.363616954905    2.348585445136
 H    1.248624245772    2.613476829310    0.721529281062
RB    1.245917296628   -2.075534104930   -1.449212943452
