11

 H   -3.715629264413    1.392501253315    2.075859575390
 H   -3.832663369803    0.642402581591    0.448791320336
 H   -3.715749634826    2.428301159274    0.592278059049
 C   -3.395707901904    1.470419742747    1.026858602661
 S   -1.586807673886    1.282395279630    0.895438841153
 S   -1.096310158569    2.979817673814    2.080497843626
 C    0.712590066643    2.791654529411    1.949276757768
 H    1.032513145482    1.833762081397    2.383920674809
 H    1.149545550093    3.619657663266    2.527364161135
 H    1.032630153885    2.869517537671    0.900307997061
RB    1.485006835805   -2.358952296778   -1.647107804602
