11

 H   -3.877624833329    1.584531784585    2.209943612390
 H   -3.994658938719    0.834433112861    0.582875357336
 H   -3.877745203742    2.620331690544    0.726362096049
 C   -3.557703470820    1.662450274017    1.160942639661
 S   -1.748803242802    1.474425810900    1.029522878153
 S   -1.258305727485    3.171848205084    2.214581880626
 C    0.550594497727    2.983685060681    2.083360794768
 H    0.870517576566    2.025792612667    2.518004711809
 H    0.987549981177    3.811688194536    2.661448198135
 H    0.870634584969    3.061548068941    1.034392034061
RB    1.664323990189   -2.571515940664   -1.795528950463
