11

 H   -3.931623356301    1.648541961675    2.254638291390
 H   -4.048657461691    0.898443289951    0.627570036336
 H   -3.931743726714    2.684341867634    0.771056775049
 C   -3.611701993792    1.726460451107    1.205637318661
 S   -1.802801765774    1.538435987990    1.074217557153
 S   -1.312304250457    3.235858382174    2.259276559626
 C    0.496595974755    3.047695237771    2.128055473768
 H    0.816519053594    2.089802789757    2.562699390809
 H    0.933551458205    3.875698371626    2.706142877135
 H    0.816636061997    3.125558246031    1.079086713061
RB    1.724096374983   -2.642370488626   -1.845002665751
