11

 H   -4.012621140759    1.744557227310    2.321680309890
 H   -4.129655246149    0.994458555586    0.694612054836
 H   -4.012741511172    2.780357133269    0.838098793549
 C   -3.692699778250    1.822475716742    1.272679337161
 S   -1.883799550232    1.634451253625    1.141259575653
 S   -1.393302034915    3.331873647809    2.326318578126
 C    0.415598190297    3.143710503406    2.195097492268
 H    0.735521269136    2.185818055392    2.629741409309
 H    0.852553673747    3.971713637261    2.773184895635
 H    0.735638277539    3.221573511666    1.146128731561
RB    1.813754952175   -2.748652310569   -1.919213238682
