11

 H   -4.039620402245    1.776562315855    2.344027649390
 H   -4.156654507635    1.026463644131    0.716959394336
 H   -4.039740772658    2.812362221814    0.860446133049
 C   -3.719699039736    1.854480805287    1.295026676661
 S   -1.910798811718    1.666456342170    1.163606915153
 S   -1.420301296401    3.363878736354    2.348665917626
 C    0.388598928811    3.175715591951    2.217444831768
 H    0.708522007650    2.217823143937    2.652088748809
 H    0.825554412261    4.003718725806    2.795532235135
 H    0.708639016053    3.253578600211    1.168476071061
RB    1.843641144572   -2.784079584550   -1.943950096325
