11

 H   -4.120618186703    1.872577581491    2.411069667890
 H   -4.237652292093    1.122478909767    0.784001412836
 H   -4.120738557116    2.908377487450    0.927488151549
 C   -3.800696824194    1.950496070923    1.362068695161
 S   -1.991796596176    1.762471607806    1.230648933653
 S   -1.501299080859    3.459894001990    2.415707936126
 C    0.307601144353    3.271730857587    2.284486850268
 H    0.627524223192    2.313838409573    2.719130767309
 H    0.744556627803    4.099733991442    2.862574253635
 H    0.627641231595    3.349593865847    1.235518089561
RB    1.933299721763   -2.890361406493   -2.018160669256
