11

 H   -4.201615971161    1.968592847126    2.478111686390
 H   -4.318650076551    1.218494175402    0.851043431336
 H   -4.201736341574    3.004392753085    0.994530170049
 C   -3.881694608652    2.046511336558    1.429110713661
 S   -2.072794380634    1.858486873441    1.297690952153
 S   -1.582296865317    3.555909267625    2.482749954626
 C    0.226603359895    3.367746123222    2.351528868768
 H    0.546526438734    2.409853675208    2.786172785809
 H    0.663558843345    4.195749257077    2.929616272135
 H    0.546643447137    3.445609131482    1.302560108061
RB    2.022958298955   -2.996643228436   -2.092371242187
