11

 H   -4.363611540077    2.160623378396    2.612195723390
 H   -4.480645645467    1.410524706672    0.985127468336
 H   -4.363731910490    3.196423284355    1.128614207049
 C   -4.043690177568    2.238541867828    1.563194750661
 S   -2.234789949550    2.050517404711    1.431774989153
 S   -1.744292434233    3.747939798895    2.616833991626
 C    0.064607790979    3.559776654492    2.485612905768
 H    0.384530869818    2.601884206478    2.920256822809
 H    0.501563274429    4.387779788347    3.063700309135
 H    0.384647878221    3.637639662752    1.436644145061
RB    2.202275453338   -3.209206872322   -2.240792388049
