11

 H   -4.498607847507    2.320648821122    2.723932420889
 H   -4.615641952897    1.570550149398    1.096864165835
 H   -4.498728217920    3.356448727081    1.240350904548
 C   -4.178686484998    2.398567310554    1.674931448160
 S   -2.369786256980    2.210542847437    1.543511686652
 S   -1.879288741663    3.907965241621    2.728570689125
 C   -0.070388516451    3.719802097218    2.597349603267
 H    0.249534562388    2.761909649204    3.031993520308
 H    0.366566966999    4.547805231073    3.175437006634
 H    0.249651570791    3.797665105478    1.548380842560
RB    2.351706415324   -3.386343242227   -2.364476676267
