11

 H   -4.552606370478    2.384658998212    2.768627099889
 H   -4.669640475868    1.634560326488    1.141558844835
 H   -4.552726740891    3.420458904171    1.285045583548
 C   -4.232685007969    2.462577487644    1.719626127160
 S   -2.423784779951    2.274553024527    1.588206365652
 S   -1.933287264634    3.971975418711    2.773265368125
 C   -0.124387039422    3.783812274308    2.642044282267
 H    0.195536039417    2.825919826294    3.076688199308
 H    0.312568444028    4.611815408163    3.220131685634
 H    0.195653047820    3.861675282568    1.593075521560
RB    2.411478800119   -3.457197790189   -2.413950391554
