11

 H   -4.606604893450    2.448669175302    2.813321778889
 H   -4.723638998840    1.698570503578    1.186253523835
 H   -4.606725263863    3.484469081261    1.329740262548
 C   -4.286683530941    2.526587664734    1.764320806160
 S   -2.477783302923    2.338563201617    1.632901044652
 S   -1.987285787606    4.035985595801    2.817960047125
 C   -0.178385562394    3.847822451398    2.686738961267
 H    0.141537516445    2.889930003384    3.121382878308
 H    0.258569921056    4.675825585253    3.264826364634
 H    0.141654524848    3.925685459658    1.637770200560
RB    2.471251184913   -3.528052338151   -2.463424106842
