11

 H   -4.714601939394    2.576689529482    2.902711136889
 H   -4.831636044784    1.826590857758    1.275642881835
 H   -4.714722309807    3.612489435441    1.419129620548
 C   -4.394680576885    2.654608018914    1.853710164160
 S   -2.585780348867    2.466583555797    1.722290402652
 S   -2.095282833550    4.164005949981    2.907349405125
 C   -0.286382608338    3.975842805578    2.776128319267
 H    0.033540470501    3.017950357564    3.210772236308
 H    0.150572875112    4.803845939433    3.354215722634
 H    0.033657478904    4.053705813838    1.727159558560
RB    2.590795954502   -3.669761434074   -2.562371537416
