11

 H   -4.795599723852    2.672704795118    2.969753155389
 H   -4.912633829242    1.922606123394    1.342684900335
 H   -4.795720094265    3.708504701077    1.486171639048
 C   -4.475678361343    2.750623284550    1.920752182660
 S   -2.666778133325    2.562598821433    1.789332421152
 S   -2.176280618008    4.260021215617    2.974391423625
 C   -0.367380392796    4.071858071214    2.843170337767
 H   -0.047457313957    3.113965623200    3.277814254808
 H    0.069575090654    4.899861205069    3.421257741134
 H   -0.047340305554    4.149721079474    1.794201577060
RB    2.680454531694   -3.776043256017   -2.636582110347
