11

 H   -4.849598246824    2.736714972208    3.014447834389
 H   -4.966632352214    1.986616300484    1.387379579335
 H   -4.849718617237    3.772514878167    1.530866318048
 C   -4.529676884315    2.814633461640    1.965446861660
 S   -2.720776656297    2.626608998523    1.834027100152
 S   -2.230279140980    4.324031392707    3.019086102625
 C   -0.421378915768    4.135868248304    2.887865016767
 H   -0.101455836929    3.177975800290    3.322508933808
 H    0.015576567682    4.963871382159    3.465952420134
 H   -0.101338828526    4.213731256564    1.838896256060
RB    2.740226916488   -3.846897803979   -2.686055825634
