13

 C    0.466189923455    0.705305084245    1.221624403008
 H    0.466189923455    1.252403084245    2.169226403008
 C    0.466189923455   -0.702654915755    1.221624403008
 H    0.466189923455   -1.249752915755    2.169226403008
 C    0.466189923455    1.409284084245    0.002295403008
 H    0.466189923455    2.503481084245    0.002294403008
 C    0.466189923455   -1.406633915755    0.002295403008
 H    0.466189923455   -2.500830915755    0.002294403008
 C    0.466189923455    0.705304084245   -1.217033596992
 H    0.466189923455    1.252403084245   -2.164634596992
 C    0.466189923455   -0.702653915755   -1.217033596992
 H    0.466189923455   -1.249752915755   -2.164634596992
 K   -0.933810076545   -0.002654233732   -0.004597848110
