13

 C    1.465168330858    0.705305084245    1.221624403008
 H    1.465168330858    1.252403084245    2.169226403008
 C    1.465168330858   -0.702654915755    1.221624403008
 H    1.465168330858   -1.249752915755    2.169226403008
 C    1.465168330858    1.409284084245    0.002295403008
 H    1.465168330858    2.503481084245    0.002294403008
 C    1.465168330858   -1.406633915755    0.002295403008
 H    1.465168330858   -2.500830915755    0.002294403008
 C    1.465168330858    0.705304084245   -1.217033596992
 H    1.465168330858    1.252403084245   -2.164634596992
 C    1.465168330858   -0.702653915755   -1.217033596992
 H    1.465168330858   -1.249752915755   -2.164634596992
 K   -2.934831669142   -0.002654233732   -0.004597848110
