13

 C    1.598365451846    0.705305084245    1.221624403008
 H    1.598365451846    1.252403084245    2.169226403008
 C    1.598365451846   -0.702654915755    1.221624403008
 H    1.598365451846   -1.249752915755    2.169226403008
 C    1.598365451846    1.409284084245    0.002295403008
 H    1.598365451846    2.503481084245    0.002294403008
 C    1.598365451846   -1.406633915755    0.002295403008
 H    1.598365451846   -2.500830915755    0.002294403008
 C    1.598365451846    0.705304084245   -1.217033596992
 H    1.598365451846    1.252403084245   -2.164634596992
 C    1.598365451846   -0.702653915755   -1.217033596992
 H    1.598365451846   -1.249752915755   -2.164634596992
 K   -3.201634548154   -0.002654233732   -0.004597848110
