13

 C    3.163431623444    0.705305084245    1.221624403008
 H    3.163431623444    1.252403084245    2.169226403008
 C    3.163431623444   -0.702654915755    1.221624403008
 H    3.163431623444   -1.249752915755    2.169226403008
 C    3.163431623444    1.409284084245    0.002295403008
 H    3.163431623444    2.503481084245    0.002294403008
 C    3.163431623444   -1.406633915755    0.002295403008
 H    3.163431623444   -2.500830915755    0.002294403008
 C    3.163431623444    0.705304084245   -1.217033596992
 H    3.163431623444    1.252403084245   -2.164634596992
 C    3.163431623444   -0.702653915755   -1.217033596992
 H    3.163431623444   -1.249752915755   -2.164634596992
 K   -6.336568376556   -0.002654233732   -0.004597848110
