14

 C    1.264021760917    2.089400469117    0.000000050743
 O    1.096561760917    0.644170469117    0.000000050743
 H    1.940531760917    0.164850469117    0.000000050743
 H    0.244491760917    2.490140469117    0.000000050743
 H    1.790491760917    2.415400469117    0.904140050743
 H    1.790491760917    2.415400469117   -0.904139949257
RB   -0.316028239083   -0.185649530883   -2.168419949257
RB   -0.316028239083   -0.185649530883    2.168420050743
 O    0.579222661713    0.340262166442   -0.000000301189
 C    0.411762634321   -1.104968316639   -0.000000301188
 H   -0.264740469949    0.819586449985   -0.000000957789
 H    1.431293965036   -1.505703238114    0.000000476923
 H   -0.114703166660   -1.430961103624   -0.904141663383
 H   -0.114704486633   -1.430960950678    0.904140347554
