14

 C    1.323057362594    2.124080642199    0.000000090903
 O    1.155597362594    0.678850642199    0.000000090903
 H    1.999567362594    0.199530642199    0.000000090903
 H    0.303527362594    2.524820642199    0.000000090903
 H    1.849527362594    2.450080642199    0.904140090903
 H    1.849527362594    2.450080642199   -0.904139909097
RB   -0.256992637406   -0.150969357801   -2.168419909097
RB   -0.256992637406   -0.150969357801    2.168420090903
 O    0.207142347387    0.121685420629   -0.000000554305
 C    0.039682319994   -1.323545062452   -0.000000554305
 H   -0.636820784276    0.601009704172   -0.000001210905
 H    1.059213650709   -1.724279983927    0.000000223807
 H   -0.486783480987   -1.649537849437   -0.904141916499
 H   -0.486784800959   -1.649537696491    0.904140094437
