14

 C    1.334864482929    2.131016676816    0.000000098936
 O    1.167404482929    0.685786676816    0.000000098936
 H    2.011374482929    0.206466676816    0.000000098936
 H    0.315334482929    2.531756676816    0.000000098936
 H    1.861334482929    2.457016676816    0.904140098936
 H    1.861334482929    2.457016676816   -0.904139901064
RB   -0.245185517071   -0.144033323184   -2.168419901064
RB   -0.245185517071   -0.144033323184    2.168420098936
 O    0.132726284521    0.077970071466   -0.000000604928
 C   -0.034733742871   -1.367260411615   -0.000000604928
 H   -0.711236847141    0.557294355009   -0.000001261528
 H    0.984797587844   -1.767995333089    0.000000173183
 H   -0.561199543852   -1.693253198599   -0.904141967123
 H   -0.561200863825   -1.693253045653    0.904140043814
