14

 C    1.358478723600    2.144888746049    0.000000115000
 O    1.191018723600    0.699658746049    0.000000115000
 H    2.034988723600    0.220338746049    0.000000115000
 H    0.338948723600    2.545628746049    0.000000115000
 H    1.884948723600    2.470888746049    0.904140115000
 H    1.884948723600    2.470888746049   -0.904139885000
RB   -0.221571276400   -0.130161253951   -2.168419885000
RB   -0.221571276400   -0.130161253951    2.168420115000
 O   -0.016105841210   -0.009460626859   -0.000000706174
 C   -0.183565868602   -1.454691109940   -0.000000706174
 H   -0.860068972872    0.469863656684   -0.000001362775
 H    0.835965462113   -1.855426031414    0.000000071937
 H   -0.710031669583   -1.780683896925   -0.904142068369
 H   -0.710032989555   -1.780683743978    0.904139942568
