14

 C    1.393900084606    2.165696849899    0.000000139096
 O    1.226440084606    0.720466849899    0.000000139096
 H    2.070410084606    0.241146849899    0.000000139096
 H    0.374370084606    2.566436849899    0.000000139096
 H    1.920370084606    2.491696849899    0.904140139096
 H    1.920370084606    2.491696849899   -0.904139860904
RB   -0.186149915394   -0.109353150101   -2.168419860904
RB   -0.186149915394   -0.109353150101    2.168420139096
 O   -0.239354029806   -0.140606674347   -0.000000858044
 C   -0.406814057198   -1.585837157428   -0.000000858044
 H   -1.083317161468    0.338717609196   -0.000001514644
 H    0.612717273517   -1.986572078902   -0.000000079933
 H   -0.933279858179   -1.911829944412   -0.904142220239
 H   -0.933281178151   -1.911829791466    0.904139790698
