14

 C    1.464742806617    2.207313057598    0.000000187288
 O    1.297282806617    0.762083057598    0.000000187288
 H    2.141252806617    0.282763057598    0.000000187288
 H    0.445212806617    2.608053057598    0.000000187288
 H    1.991212806617    2.533313057598    0.904140187288
 H    1.991212806617    2.533313057598   -0.904139812712
RB   -0.115307193383   -0.067736942402   -2.168419812712
RB   -0.115307193383   -0.067736942402    2.168420187288
 O   -0.685850406998   -0.402898769322   -0.000001161783
 C   -0.853310434390   -1.848129252403   -0.000001161783
 H   -1.529813538660    0.076425514221   -0.000001818384
 H    0.166220896325   -2.248864173878   -0.000000383672
 H   -1.379776235371   -2.174122039388   -0.904142523978
 H   -1.379777555344   -2.174121886442    0.904139486959
