14

 C    1.476549926953    2.214249092215    0.000000195320
 O    1.309089926953    0.769019092215    0.000000195320
 H    2.153059926953    0.289699092215    0.000000195320
 H    0.457019926953    2.614989092215    0.000000195320
 H    2.003019926953    2.540249092215    0.904140195320
 H    2.003019926953    2.540249092215   -0.904139804680
RB   -0.103500073047   -0.060800907785   -2.168419804680
RB   -0.103500073047   -0.060800907785    2.168420195320
 O   -0.760266469863   -0.446614118485   -0.000001212406
 C   -0.927726497255   -1.891844601566   -0.000001212406
 H   -1.604229601525    0.032710165058   -0.000001869007
 H    0.091804833460   -2.292579523040   -0.000000434295
 H   -1.454192298236   -2.217837388551   -0.904142574601
 H   -1.454193618209   -2.217837235604    0.904139436336
