14

 C    1.500164167623    2.228121161448    0.000000211384
 O    1.332704167623    0.782891161448    0.000000211384
 H    2.176674167623    0.303571161448    0.000000211384
 H    0.480634167623    2.628861161448    0.000000211384
 H    2.026634167623    2.554121161448    0.904140211384
 H    2.026634167623    2.554121161448   -0.904139788616
RB   -0.079885832377   -0.046928838552   -2.168419788616
RB   -0.079885832377   -0.046928838552    2.168420211384
 O   -0.909098595594   -0.534044816810   -0.000001313653
 C   -1.076558622986   -1.979275299891   -0.000001313653
 H   -1.753061727256   -0.054720533267   -0.000001970253
 H   -0.057027292271   -2.380010221365   -0.000000535542
 H   -1.603024423967   -2.305268086876   -0.904142675848
 H   -1.603025743940   -2.305267933929    0.904139335089
