14

 C    1.535585528629    2.248929265297    0.000000235481
 O    1.368125528629    0.803699265297    0.000000235481
 H    2.212095528629    0.324379265297    0.000000235481
 H    0.516055528629    2.649669265297    0.000000235481
 H    2.062055528629    2.574929265297    0.904140235481
 H    2.062055528629    2.574929265297   -0.904139764519
RB   -0.044464471371   -0.026120734703   -2.168419764519
RB   -0.044464471371   -0.026120734703    2.168420235481
 O   -1.132346784190   -0.665190864298   -0.000001465523
 C   -1.299806811582   -2.110421347379   -0.000001465523
 H   -1.976309915852   -0.185866580755   -0.000002122123
 H   -0.280275480867   -2.511156268853   -0.000000687411
 H   -1.826272612563   -2.436414134363   -0.904142827717
 H   -1.826273932536   -2.436413981417    0.904139183219
