14

 C    1.547392648965    2.255865299914    0.000000243513
 O    1.379932648965    0.810635299914    0.000000243513
 H    2.223902648965    0.331315299914    0.000000243513
 H    0.527862648965    2.656605299914    0.000000243513
 H    2.073862648965    2.581865299914    0.904140243513
 H    2.073862648965    2.581865299914   -0.904139756487
RB   -0.032657351035   -0.019184700086   -2.168419756487
RB   -0.032657351035   -0.019184700086    2.168420243513
 O   -1.206762847055   -0.708906213460   -0.000001516146
 C   -1.374222874448   -2.154136696541   -0.000001516146
 H   -2.050725978718   -0.229581929917   -0.000002172746
 H   -0.354691543732   -2.554871618016   -0.000000738035
 H   -1.900688675429   -2.480129483526   -0.904142878340
 H   -1.900689995401   -2.480129330580    0.904139132596
