14

 C    1.606428250641    2.290545472997    0.000000283673
 O    1.438968250641    0.845315472997    0.000000283673
 H    2.282938250641    0.365995472997    0.000000283673
 H    0.586898250641    2.691285472997    0.000000283673
 H    2.132898250641    2.616545472997    0.904140283673
 H    2.132898250641    2.616545472997   -0.904139716327
RB    0.026378250641    0.015495472997   -2.168419716327
RB    0.026378250641    0.015495472997    2.168420283673
 O   -1.578843161382   -0.927482959273   -0.000001769262
 C   -1.746303188774   -2.372713442354   -0.000001769262
 H   -2.422806293044   -0.448158675730   -0.000002425862
 H   -0.726771858059   -2.773448363829   -0.000000991151
 H   -2.272768989755   -2.698706229339   -0.904143131457
 H   -2.272770309728   -2.698706076393    0.904138879480
