14

 C    1.689078092988    2.339097715313    0.000000339897
 O    1.521618092988    0.893867715313    0.000000339897
 H    2.365588092988    0.414547715313    0.000000339897
 H    0.669548092988    2.739837715313    0.000000339897
 H    2.215548092988    2.665097715313    0.904140339897
 H    2.215548092988    2.665097715313   -0.904139660103
RB    0.109028092988    0.064047715313   -2.168419660103
RB    0.109028092988    0.064047715313    2.168420339897
 O   -2.099755601439   -1.233490403412   -0.000002123624
 C   -2.267215628832   -2.678720886492   -0.000002123624
 H   -2.943718733102   -0.754166119869   -0.000002780225
 H   -1.247684298116   -3.079455807967   -0.000001345513
 H   -2.793681429813   -3.004713673477   -0.904143485819
 H   -2.793682749785   -3.004713520531    0.904138525118
