14

 C    1.771727935335    2.387649957629    0.000000396122
 O    1.604267935335    0.942419957629    0.000000396122
 H    2.448237935335    0.463099957629    0.000000396122
 H    0.752197935335    2.788389957629    0.000000396122
 H    2.298197935335    2.713649957629    0.904140396122
 H    2.298197935335    2.713649957629   -0.904139603878
RB    0.191677935335    0.112599957629   -2.168419603878
RB    0.191677935335    0.112599957629    2.168420396122
 O   -2.620668041497   -1.539497847550   -0.000002477987
 C   -2.788128068889   -2.984728330630   -0.000002477987
 H   -3.464631173159   -1.060173564007   -0.000003134588
 H   -1.768596738174   -3.385463252105   -0.000001699876
 H   -3.314593869870   -3.310721117615   -0.904143840182
 H   -3.314595189843   -3.310720964669    0.904138170755
