14

 C    1.795342176006    2.401522026862    0.000000412186
 O    1.627882176006    0.956292026862    0.000000412186
 H    2.471852176006    0.476972026862    0.000000412186
 H    0.775812176006    2.802262026862    0.000000412186
 H    2.321812176006    2.727522026862    0.904140412186
 H    2.321812176006    2.727522026862   -0.904139587814
RB    0.215292176006    0.126472026862   -2.168419587814
RB    0.215292176006    0.126472026862    2.168420412186
 O   -2.769500167227   -1.626928545875   -0.000002579233
 C   -2.936960194620   -3.072159028956   -0.000002579233
 H   -3.613463298890   -1.147604262332   -0.000003235834
 H   -1.917428863905   -3.472893950430   -0.000001801122
 H   -3.463425995601   -3.398151815940   -0.904143941428
 H   -3.463427315573   -3.398151662994    0.904138069509
