14

 C    1.830763537012    2.422330130712    0.000000436282
 O    1.663303537012    0.977100130712    0.000000436282
 H    2.507273537012    0.497780130712    0.000000436282
 H    0.811233537012    2.823070130712    0.000000436282
 H    2.357233537012    2.748330130712    0.904140436282
 H    2.357233537012    2.748330130712   -0.904139563718
RB    0.250713537012    0.147280130712   -2.168419563718
RB    0.250713537012    0.147280130712    2.168420436282
 O   -2.992748355823   -1.758074593363   -0.000002731103
 C   -3.160208383216   -3.203305076443   -0.000002731103
 H   -3.836711487486   -1.278750309820   -0.000003387704
 H   -2.140677052501   -3.604039997918   -0.000001952992
 H   -3.686674184197   -3.529297863428   -0.904144093298
 H   -3.686675504169   -3.529297710482    0.904137917639
