14

 C    1.854377777682    2.436202199945    0.000000452346
 O    1.686917777682    0.990972199945    0.000000452346
 H    2.530887777682    0.511652199945    0.000000452346
 H    0.834847777682    2.836942199945    0.000000452346
 H    2.380847777682    2.762202199945    0.904140452346
 H    2.380847777682    2.762202199945   -0.904139547654
RB    0.274327777682    0.161152199945   -2.168419547654
RB    0.274327777682    0.161152199945    2.168420452346
 O   -3.141580481554   -1.845505291688   -0.000002832349
 C   -3.309040508947   -3.290735774768   -0.000002832349
 H   -3.985543613217   -1.366181008145   -0.000003488950
 H   -2.289509178231   -3.691470696243   -0.000002054238
 H   -3.835506309928   -3.616728561753   -0.904144194544
 H   -3.835507629900   -3.616728408807    0.904137816393
