14

 C    1.877992018353    2.450074269178    0.000000468410
 O    1.710532018353    1.004844269178    0.000000468410
 H    2.554502018353    0.525524269178    0.000000468410
 H    0.858462018353    2.850814269178    0.000000468410
 H    2.404462018353    2.776074269178    0.904140468410
 H    2.404462018353    2.776074269178   -0.904139531590
RB    0.297942018353    0.175024269178   -2.168419531590
RB    0.297942018353    0.175024269178    2.168420468410
 O   -3.290412607285   -1.932935990013   -0.000002933596
 C   -3.457872634677   -3.378166473094   -0.000002933596
 H   -4.134375738947   -1.453611706470   -0.000003590196
 H   -2.438341303962   -3.778901394568   -0.000002155485
 H   -3.984338435658   -3.704159260078   -0.904144295791
 H   -3.984339755631   -3.704159107132    0.904137715146
