14

 C    1.889799138688    2.457010303794    0.000000476442
 O    1.722339138688    1.011780303794    0.000000476442
 H    2.566309138688    0.532460303794    0.000000476442
 H    0.870269138688    2.857750303794    0.000000476442
 H    2.416269138688    2.783010303794    0.904140476442
 H    2.416269138688    2.783010303794   -0.904139523558
RB    0.309749138688    0.181960303794   -2.168419523558
RB    0.309749138688    0.181960303794    2.168420476442
 O   -3.364828670150   -1.976651339175   -0.000002984219
 C   -3.532288697543   -3.421881822256   -0.000002984219
 H   -4.208791801813   -1.497327055632   -0.000003640820
 H   -2.512757366827   -3.822616743731   -0.000002206108
 H   -4.058754498524   -3.747874609241   -0.904144346414
 H   -4.058755818496   -3.747874456295    0.904137664523
