14

 C    1.901606259024    2.463946338411    0.000000484475
 O    1.734146259024    1.018716338411    0.000000484475
 H    2.578116259024    0.539396338411    0.000000484475
 H    0.882076259024    2.864686338411    0.000000484475
 H    2.428076259024    2.789946338411    0.904140484475
 H    2.428076259024    2.789946338411   -0.904139515525
RB    0.321556259024    0.188896338411   -2.168419515525
RB    0.321556259024    0.188896338411    2.168420484475
 O   -3.439244733016   -2.020366688338   -0.000003034842
 C   -3.606704760408   -3.465597171419   -0.000003034842
 H   -4.283207864678   -1.541042404795   -0.000003691443
 H   -2.587173429693   -3.866332092893   -0.000002256731
 H   -4.133170561389   -3.791589958404   -0.904144397037
 H   -4.133171881362   -3.791589805457    0.904137613900
