14

 C    2.255819869083    2.672027376908    0.000000725436
 O    2.088359869083    1.226797376908    0.000000725436
 H    2.932329869083    0.747477376908    0.000000725436
 H    1.236289869083    3.072767376908    0.000000725436
 H    2.782289869083    2.998027376908    0.904140725436
 H    2.782289869083    2.998027376908   -0.904139274564
RB    0.675769869083    0.396977376908   -2.168419274564
RB    0.675769869083    0.396977376908    2.168420725436
 O   -5.671726618976   -3.331827163216   -0.000004553539
 C   -5.839186646369   -4.777057646296   -0.000004553539
 H   -6.515689750639   -2.852502879673   -0.000005210140
 H   -4.819655315653   -5.177792567771   -0.000003775428
 H   -6.365652447349   -5.103050433281   -0.904145915734
 H   -6.365653767322   -5.103050280335    0.904136095203
