17

 N   -1.097957453454   -0.991888476640    0.393880120741
 C    0.112230613390   -0.336682272964    0.397841744709
 N    1.345643027693   -0.935359967426    0.409880029614
 C    2.316066227749   -0.045183825815    0.398007572641
 N    2.112989390336    1.316454307699    0.391172412299
 H    2.916816515587    1.936414847454    0.309184389877
 N    3.641520981986   -0.463858547495    0.319660269406
 H    4.296057187318    0.067944676905    0.887301046136
 H    3.720326069377   -1.464558691430    0.481243607395
 C    0.853715648019    2.002488011230    0.404126198976
 O    0.826135278914    3.230661096007    0.400038070548
 C   -0.219069477957    1.028794621956    0.410327396916
 N   -1.590142779726    1.215125667269    0.410252212200
 C   -2.083666274237   -0.023477346776    0.399922112535
 H   -3.141164187505   -0.277623968608    0.396975468109
 H   -1.223054449985   -1.998471561872    0.385220569710
RB   -1.099587878346   -0.982226275376   -0.706076234566
