17

 N   -1.097637426350   -0.993785016804    0.609784483472
 C    0.112550640494   -0.338578813128    0.613746107440
 N    1.345963054797   -0.937256507590    0.625784392345
 C    2.316386254853   -0.047080365979    0.613911935372
 N    2.113309417440    1.314557767535    0.607076775030
 H    2.917136542691    1.934518307290    0.525088752608
 N    3.641841009090   -0.465755087659    0.535564632137
 H    4.296377214422    0.066048136741    1.103205408867
 H    3.720646096481   -1.466455231594    0.697147970126
 C    0.854035675123    2.000591471066    0.620030561707
 O    0.826455306018    3.228764555843    0.615942433279
 C   -0.218749450853    1.026898081792    0.626231759647
 N   -1.589822752622    1.213229127105    0.626156574931
 C   -2.083346247133   -0.025373886940    0.615826475266
 H   -3.140844160401   -0.279520508772    0.612879830840
 H   -1.222734422881   -2.000368102036    0.601124932441
RB   -1.100157173910   -0.978852523942   -1.090148065640
