17

 N   -1.093210384740   -1.020020489071    3.596461501248
 C    0.116977682104   -0.364814285395    3.600423125216
 N    1.350390096407   -0.963491979857    3.612461410121
 C    2.320813296463   -0.073315838246    3.600588953148
 N    2.117736459050    1.288322295268    3.593753792806
 H    2.921563584301    1.908282835023    3.511765770384
 N    3.646268050700   -0.491990559926    3.522241649913
 H    4.300804256032    0.039812664474    4.089882426643
 H    3.725073138091   -1.492690703861    3.683824987902
 C    0.858462716733    1.974355998799    3.606707579483
 O    0.830882347628    3.202529083576    3.602619451055
 C   -0.214322409243    1.000662609525    3.612908777423
 N   -1.585395711012    1.186993654838    3.612833592707
 C   -2.078919205523   -0.051609359207    3.602503493042
 H   -3.136417118791   -0.305755981039    3.599556848616
 H   -1.218307381271   -2.026603574303    3.587801950217
RB   -1.108032429213   -0.932182295765   -6.403141728821
