17

 N   -1.097477412798   -0.994733286886    0.717736664837
 C    0.112710654046   -0.339527083210    0.721698288805
 N    1.346123068349   -0.938204777672    0.733736573710
 C    2.316546268405   -0.048028636061    0.721864116737
 N    2.113469430992    1.313609497453    0.715028956395
 H    2.917296556243    1.933570037208    0.633040933973
 N    3.642001022642   -0.466703357741    0.643516813502
 H    4.296537227974    0.065099866659    1.211157590232
 H    3.720806110033   -1.467403501676    0.805100151491
 C    0.854195688675    1.999643200984    0.727982743072
 O    0.826615319570    3.227816285761    0.723894614644
 C   -0.218589437301    1.025949811710    0.734183941012
 N   -1.589662739070    1.212280857023    0.734108756296
 C   -2.083186233581   -0.026322157022    0.723778656631
 H   -3.140684146849   -0.280468778854    0.720832012205
 H   -1.222574409329   -2.001316372118    0.709077113806
RB   -1.100441821693   -0.977165648224   -1.282183981176
