17

 N   -1.097424074947   -0.995049376913    0.753720725292
 C    0.112763991897   -0.339843173237    0.757682349260
 N    1.346176406200   -0.938520867699    0.769720634165
 C    2.316599606256   -0.048344726088    0.757848177192
 N    2.113522768843    1.313293407426    0.751013016850
 H    2.917349894094    1.933253947181    0.669024994428
 N    3.642054360493   -0.467019447768    0.679500873957
 H    4.296590565825    0.064783776632    1.247141650687
 H    3.720859447884   -1.467719591703    0.841084211946
 C    0.854249026526    1.999327110957    0.763966803527
 O    0.826668657421    3.227500195734    0.759878675099
 C   -0.218536099450    1.025633721683    0.770168001467
 N   -1.589609401219    1.211964766996    0.770092816751
 C   -2.083132895730   -0.026638247049    0.759762717086
 H   -3.140630808998   -0.280784868881    0.756816072660
 H   -1.222521071478   -2.001632462145    0.745061174261
RB   -1.100536704287   -0.976603356319   -1.346195953022
