17

 N   -1.097317399246   -0.995681556968    0.825688846203
 C    0.112870667598   -0.340475353292    0.829650470171
 N    1.346283081901   -0.939153047754    0.841688755076
 C    2.316706281957   -0.048976906143    0.829816298103
 N    2.113629444544    1.312661227371    0.822981137761
 H    2.917456569795    1.932621767126    0.740993115339
 N    3.642161036194   -0.467651627823    0.751468994868
 H    4.296697241526    0.064151596577    1.319109771598
 H    3.720966123585   -1.468351771758    0.913052332857
 C    0.854355702227    1.998694930902    0.835934924438
 O    0.826775333122    3.226868015679    0.831846796010
 C   -0.218429423749    1.025001541628    0.842136122378
 N   -1.589502725518    1.211332586941    0.842060937662
 C   -2.083026220029   -0.027270427104    0.831730837997
 H   -3.140524133297   -0.281417048936    0.828784193571
 H   -1.222414395777   -2.002264642200    0.817029295172
RB   -1.100726469475   -0.975478772507   -1.474219896713
