17

 N   -1.097210723544   -0.996313737022    0.897656967113
 C    0.112977343300   -0.341107533346    0.901618591081
 N    1.346389757603   -0.939785227808    0.913656875986
 C    2.316812957659   -0.049609086197    0.901784419013
 N    2.113736120246    1.312029047317    0.894949258671
 H    2.917563245497    1.931989587072    0.812961236249
 N    3.642267711896   -0.468283807877    0.823437115778
 H    4.296803917228    0.063519416523    1.391077892508
 H    3.721072799287   -1.468983951812    0.985020453767
 C    0.854462377929    1.998062750848    0.907903045348
 O    0.826882008824    3.226235835625    0.903814916920
 C   -0.218322748047    1.024369361574    0.914104243288
 N   -1.589396049816    1.210700406887    0.914029058572
 C   -2.082919544327   -0.027902607158    0.903698958907
 H   -3.140417457595   -0.282049228990    0.900752314481
 H   -1.222307720075   -2.002896822254    0.888997416082
RB   -1.100916234663   -0.974354188696   -1.602243840404
