17

 N   -1.097157385694   -0.996629827050    0.933641027568
 C    0.113030681150   -0.341423623374    0.937602651536
 N    1.346443095453   -0.940101317836    0.949640936441
 C    2.316866295509   -0.049925176225    0.937768479468
 N    2.113789458096    1.311712957289    0.930933319126
 H    2.917616583347    1.931673497044    0.848945296704
 N    3.642321049746   -0.468599897905    0.859421176233
 H    4.296857255078    0.063203326495    1.427061952963
 H    3.721126137137   -1.469300041840    1.021004514222
 C    0.854515715779    1.997746660820    0.943887105803
 O    0.826935346674    3.225919745597    0.939798977375
 C   -0.218269410197    1.024053271546    0.950088303743
 N   -1.589342711966    1.210384316859    0.950013119027
 C   -2.082866206477   -0.028218697186    0.939683019362
 H   -3.140364119745   -0.282365319018    0.936736374936
 H   -1.222254382225   -2.003212912282    0.924981476537
RB   -1.101011117257   -0.973791896790   -1.666255812250
