17

 N   -1.097104047843   -0.996945917077    0.969625088023
 C    0.113084019001   -0.341739713401    0.973586711991
 N    1.346496433304   -0.940417407863    0.985624996896
 C    2.316919633360   -0.050241266252    0.973752539923
 N    2.113842795947    1.311396867262    0.966917379581
 H    2.917669921198    1.931357407017    0.884929357159
 N    3.642374387597   -0.468915987932    0.895405236688
 H    4.296910592929    0.062887236468    1.463046013418
 H    3.721179474988   -1.469616131867    1.056988574677
 C    0.854569053630    1.997430570793    0.979871166258
 O    0.826988684525    3.225603655570    0.975783037830
 C   -0.218216072346    1.023737181519    0.986072364198
 N   -1.589289374115    1.210068226832    0.985997179482
 C   -2.082812868626   -0.028534787213    0.975667079817
 H   -3.140310781894   -0.282681409045    0.972720435391
 H   -1.222201044374   -2.003529002309    0.960965536992
RB   -1.101105999851   -0.973229604884   -1.730267784095
