17

 N   -1.096997372141   -0.997578097131    1.041593208933
 C    0.113190694703   -0.342371893455    1.045554832901
 N    1.346603109006   -0.941049587917    1.057593117806
 C    2.317026309062   -0.050873446306    1.045720660833
 N    2.113949471649    1.310764687208    1.038885500491
 H    2.917776596900    1.930725226963    0.956897478069
 N    3.642481063299   -0.469548167986    0.967373357598
 H    4.297017268631    0.062255056414    1.535014134328
 H    3.721286150690   -1.470248311921    1.128956695587
 C    0.854675729332    1.996798390739    1.051839287168
 O    0.827095360227    3.224971475516    1.047751158740
 C   -0.218109396644    1.023105001465    1.058040485108
 N   -1.589182698413    1.209436046778    1.057965300392
 C   -2.082706192924   -0.029166967267    1.047635200727
 H   -3.140204106192   -0.283313589099    1.044688556301
 H   -1.222094368672   -2.004161182363    1.032933657902
RB   -1.101295765039   -0.972105021073   -1.858291727786
