17

 N   -1.096890696440   -0.998210277186    1.113561329844
 C    0.113297370404   -0.343004073510    1.117522953812
 N    1.346709784707   -0.941681767972    1.129561238717
 C    2.317132984763   -0.051505626361    1.117688781744
 N    2.114056147350    1.310132507153    1.110853621402
 H    2.917883272601    1.930093046908    1.028865598980
 N    3.642587739000   -0.470180348041    1.039341478509
 H    4.297123944332    0.061622876359    1.606982255239
 H    3.721392826391   -1.470880491976    1.200924816498
 C    0.854782405033    1.996166210684    1.123807408079
 O    0.827202035928    3.224339295461    1.119719279651
 C   -0.218002720943    1.022472821410    1.130008606019
 N   -1.589076022712    1.208803866723    1.129933421303
 C   -2.082599517223   -0.029799147322    1.119603321638
 H   -3.140097430491   -0.283945769154    1.116656677212
 H   -1.221987692971   -2.004793362418    1.104901778813
RB   -1.101485530227   -0.970980437261   -1.986315671478
