17

 N   -1.096677345037   -0.999474637295    1.257497571664
 C    0.113510721807   -0.344268433619    1.261459195632
 N    1.346923136110   -0.942946128081    1.273497480537
 C    2.317346336166   -0.052769986470    1.261625023564
 N    2.114269498753    1.308868147044    1.254789863222
 H    2.918096624004    1.928828686799    1.172801840800
 N    3.642801090403   -0.471444708150    1.183277720329
 H    4.297337295735    0.060358516250    1.750918497059
 H    3.721606177794   -1.472144852085    1.344861058318
 C    0.854995756436    1.994901850575    1.267743649899
 O    0.827415387331    3.223074935352    1.263655521471
 C   -0.217789369540    1.021208461301    1.273944847839
 N   -1.588862671309    1.207539506614    1.273869663123
 C   -2.082386165820   -0.031063507431    1.263539563458
 H   -3.139884079088   -0.285210129263    1.260592919032
 H   -1.221774341568   -2.006057722527    1.248838020633
RB   -1.101865060603   -0.968731269638   -2.242363558860
