17

 N   -1.096570669336   -1.000106817350    1.329465692574
 C    0.113617397508   -0.344900613674    1.333427316542
 N    1.347029811811   -0.943578308136    1.345465601447
 C    2.317453011867   -0.053402166525    1.333593144474
 N    2.114376174454    1.308235966989    1.326757984132
 H    2.918203299705    1.928196506744    1.244769961710
 N    3.642907766104   -0.472076888205    1.255245841239
 H    4.297443971436    0.059726336195    1.822886617969
 H    3.721712853495   -1.472777032140    1.416829179228
 C    0.855102432137    1.994269670520    1.339711770809
 O    0.827522063032    3.222442755297    1.335623642381
 C   -0.217682693839    1.020576281246    1.345912968749
 N   -1.588755995608    1.206907326559    1.345837784033
 C   -2.082279490119   -0.031695687486    1.335507684368
 H   -3.139777403387   -0.285842309318    1.332561039942
 H   -1.221667665867   -2.006689902582    1.320806141543
RB   -1.102054825791   -0.967606685827   -2.370387502551
