17

 N   -1.096357317933   -1.001371177459    1.473401934395
 C    0.113830748911   -0.346164973783    1.477363558363
 N    1.347243163214   -0.944842668245    1.489401843268
 C    2.317666363270   -0.054666526634    1.477529386295
 N    2.114589525857    1.306971606880    1.470694225953
 H    2.918416651108    1.926932146635    1.388706203531
 N    3.643121117507   -0.473341248314    1.399182083060
 H    4.297657322839    0.058461976086    1.966822859790
 H    3.721926204898   -1.474041392249    1.560765421049
 C    0.855315783540    1.993005310411    1.483648012630
 O    0.827735414435    3.221178395188    1.479559884202
 C   -0.217469342436    1.019311921137    1.489849210570
 N   -1.588542644205    1.205642966450    1.489774025854
 C   -2.082066138716   -0.032960047595    1.479443926189
 H   -3.139564051984   -0.287106669427    1.476497281763
 H   -1.221454314464   -2.007954262691    1.464742383364
RB   -1.102434356167   -0.965357518204   -2.626435389933
