17

 N   -1.096197304381   -1.002319447541    1.581354115760
 C    0.113990762463   -0.347113243865    1.585315739728
 N    1.347403176766   -0.945790938327    1.597354024633
 C    2.317826376822   -0.055614796716    1.585481567660
 N    2.114749539409    1.306023336798    1.578646407318
 H    2.918576664660    1.925983876553    1.496658384896
 N    3.643281131059   -0.474289518396    1.507134264425
 H    4.297817336391    0.057513706004    2.074775041155
 H    3.722086218450   -1.474989662331    1.668717602414
 C    0.855475797092    1.992057040329    1.591600193995
 O    0.827895427987    3.220230125106    1.587512065567
 C   -0.217309328884    1.018363651055    1.597801391935
 N   -1.588382630653    1.204694696368    1.597726207219
 C   -2.081906125164   -0.033908317677    1.587396107554
 H   -3.139404038432   -0.288054939509    1.584449463128
 H   -1.221294300912   -2.008902532773    1.572694564729
RB   -1.102719003949   -0.963670642487   -2.818471305470
