17

 N   -1.096090628679   -1.002951627596    1.653322236671
 C    0.114097438165   -0.347745423920    1.657283860639
 N    1.347509852468   -0.946423118382    1.669322145544
 C    2.317933052524   -0.056246976771    1.657449688571
 N    2.114856215111    1.305391156743    1.650614528229
 H    2.918683340362    1.925351696498    1.568626505807
 N    3.643387806761   -0.474921698451    1.579102385336
 H    4.297924012093    0.056881525949    2.146743162066
 H    3.722192894152   -1.475621842386    1.740685723325
 C    0.855582472794    1.991424860274    1.663568314906
 O    0.828002103689    3.219597945051    1.659480186478
 C   -0.217202653182    1.017731471000    1.669769512846
 N   -1.588275954951    1.204062516313    1.669694328130
 C   -2.081799449462   -0.034540497732    1.659364228465
 H   -3.139297362730   -0.288687119564    1.656417584039
 H   -1.221187625210   -2.009534712828    1.644662685640
RB   -1.102908769137   -0.962546058675   -2.946495249161
