17

 N   -1.095983952978   -1.003583807651    1.725290357581
 C    0.114204113866   -0.348377603975    1.729251981549
 N    1.347616528169   -0.947055298437    1.741290266454
 C    2.318039728225   -0.056879156826    1.729417809481
 N    2.114962890812    1.304758976688    1.722582649139
 H    2.918790016063    1.924719516443    1.640594626717
 N    3.643494482462   -0.475553878506    1.651070506246
 H    4.298030687794    0.056249345894    2.218711282976
 H    3.722299569853   -1.476254022441    1.812653844235
 C    0.855689148495    1.990792680219    1.735536435816
 O    0.828108779390    3.218965764996    1.731448307388
 C   -0.217095977481    1.017099290945    1.741737633756
 N   -1.588169279250    1.203430336258    1.741662449040
 C   -2.081692773761   -0.035172677787    1.731332349375
 H   -3.139190687029   -0.289319299619    1.728385704949
 H   -1.221080949509   -2.010166892883    1.716630806550
RB   -1.103098534325   -0.961421474864   -3.074519192852
