17

 N   -1.095930615127   -1.003899897678    1.761274418036
 C    0.114257451717   -0.348693694002    1.765236042004
 N    1.347669866020   -0.947371388464    1.777274326909
 C    2.318093066076   -0.057195246853    1.765401869936
 N    2.115016228663    1.304442886661    1.758566709594
 H    2.918843353914    1.924403426416    1.676578687172
 N    3.643547820313   -0.475869968533    1.687054566701
 H    4.298084025645    0.055933255867    2.254695343431
 H    3.722352907704   -1.476570112468    1.848637904690
 C    0.855742486346    1.990476590192    1.771520496271
 O    0.828162117241    3.218649674969    1.767432367843
 C   -0.217042639630    1.016783200918    1.777721694211
 N   -1.588115941399    1.203114246231    1.777646509495
 C   -2.081639435910   -0.035488767814    1.767316409830
 H   -3.139137349178   -0.289635389646    1.764369765404
 H   -1.221027611658   -2.010482982910    1.752614867005
RB   -1.103193416919   -0.960859182958   -3.138531164698
