17

 N   -1.095877277276   -1.004215987705    1.797258478491
 C    0.114310789568   -0.349009784029    1.801220102459
 N    1.347723203871   -0.947687478491    1.813258387364
 C    2.318146403927   -0.057511336880    1.801385930391
 N    2.115069566514    1.304126796634    1.794550770049
 H    2.918896691765    1.924087336389    1.712562747627
 N    3.643601158164   -0.476186058560    1.723038627156
 H    4.298137363496    0.055617165840    2.290679403886
 H    3.722406245555   -1.476886202495    1.884621965145
 C    0.855795824197    1.990160500165    1.807504556726
 O    0.828215455092    3.218333584942    1.803416428298
 C   -0.216989301779    1.016467110891    1.813705754666
 N   -1.588062603548    1.202798156204    1.813630569950
 C   -2.081586098059   -0.035804857841    1.803300470285
 H   -3.139084011327   -0.289951479673    1.800353825859
 H   -1.220974273807   -2.010799072937    1.788598927460
RB   -1.103288299513   -0.960296891052   -3.202543136543
