17

 N   -1.095663925873   -1.005480347814    1.941194720312
 C    0.114524140971   -0.350274144138    1.945156344280
 N    1.347936555274   -0.948951838600    1.957194629185
 C    2.318359755330   -0.058775696989    1.945322172212
 N    2.115282917917    1.302862436525    1.938487011870
 H    2.919110043168    1.922822976280    1.856498989448
 N    3.643814509567   -0.477450418669    1.866974868977
 H    4.298350714899    0.054352805731    2.434615645707
 H    3.722619596958   -1.478150562604    2.028558206966
 C    0.856009175600    1.988896140056    1.951440798547
 O    0.828428806495    3.217069224833    1.947352670119
 C   -0.216775950376    1.015202750782    1.957641996487
 N   -1.587849252145    1.201533796095    1.957566811771
 C   -2.081372746656   -0.037069217950    1.947236712106
 H   -3.138870659924   -0.291215839782    1.944290067680
 H   -1.220760922404   -2.012063433046    1.932535169281
RB   -1.103667829889   -0.958047723429   -3.458591023925
