17

 N   -1.095610588023   -1.005796437842    1.977178780767
 C    0.114577478821   -0.350590234166    1.981140404735
 N    1.347989893124   -0.949267928628    1.993178689640
 C    2.318413093180   -0.059091787017    1.981306232667
 N    2.115336255767    1.302546346497    1.974471072325
 H    2.919163381018    1.922506886252    1.892483049903
 N    3.643867847417   -0.477766508697    1.902958929432
 H    4.298404052749    0.054036715703    2.470599706162
 H    3.722672934808   -1.478466652632    2.064542267421
 C    0.856062513450    1.988580050028    1.987424859002
 O    0.828482144345    3.216753134805    1.983336730574
 C   -0.216722612526    1.014886660754    1.993626056942
 N   -1.587795914295    1.201217706067    1.993550872226
 C   -2.081319408806   -0.037385307978    1.983220772561
 H   -3.138817322074   -0.291531929810    1.980274128135
 H   -1.220707584554   -2.012379523074    1.968519229736
RB   -1.103762712483   -0.957485431524   -3.522602995771
