17

 N   -1.095503912321   -1.006428617896    2.049146901677
 C    0.114684154523   -0.351222414220    2.053108525645
 N    1.348096568826   -0.949900108682    2.065146810550
 C    2.318519768882   -0.059723967071    2.053274353577
 N    2.115442931469    1.301914166443    2.046439193235
 H    2.919270056720    1.921874706198    1.964451170813
 N    3.643974523119   -0.478398688751    1.974927050342
 H    4.298510728451    0.053404535649    2.542567827072
 H    3.722779610510   -1.479098832686    2.136510388331
 C    0.856169189152    1.987947869974    2.059392979912
 O    0.828588820047    3.216120954751    2.055304851484
 C   -0.216615936824    1.014254480700    2.065594177852
 N   -1.587689238593    1.200585526013    2.065518993136
 C   -2.081212733104   -0.038017488032    2.055188893471
 H   -3.138710646372   -0.292164109864    2.052242249045
 H   -1.220600908852   -2.013011703128    2.040487350646
RB   -1.103952477671   -0.956360847712   -3.650626939462
