17

 N   -1.095397236620   -1.007060797951    2.121115022587
 C    0.114790830224   -0.351854594275    2.125076646555
 N    1.348203244527   -0.950532288737    2.137114931460
 C    2.318626444583   -0.060356147126    2.125242474487
 N    2.115549607170    1.301281986388    2.118407314145
 H    2.919376732421    1.921242526143    2.036419291723
 N    3.644081198820   -0.479030868806    2.046895171252
 H    4.298617404152    0.052772355594    2.614535947982
 H    3.722886286211   -1.479731012741    2.208478509241
 C    0.856275864853    1.987315689919    2.131361100822
 O    0.828695495748    3.215488774696    2.127272972394
 C   -0.216509261123    1.013622300645    2.137562298762
 N   -1.587582562892    1.199953345958    2.137487114046
 C   -2.081106057403   -0.038649668087    2.127157014381
 H   -3.138603970671   -0.292796289919    2.124210369955
 H   -1.220494233151   -2.013643883183    2.112455471556
RB   -1.104142242859   -0.955236263901   -3.778650883153
