17

 N   -1.095237223068   -1.008009068033    2.229067203953
 C    0.114950843776   -0.352802864357    2.233028827921
 N    1.348363258079   -0.951480558819    2.245067112826
 C    2.318786458135   -0.061304417208    2.233194655853
 N    2.115709620722    1.300333716306    2.226359495511
 H    2.919536745973    1.920294256061    2.144371473089
 N    3.644241212372   -0.479979138888    2.154847352618
 H    4.298777417704    0.051824085512    2.722488129348
 H    3.723046299763   -1.480679282823    2.316430690607
 C    0.856435878405    1.986367419837    2.239313282188
 O    0.828855509300    3.214540504614    2.235225153760
 C   -0.216349247571    1.012674030563    2.245514480128
 N   -1.587422549340    1.199005075876    2.245439295412
 C   -2.080946043851   -0.039597938169    2.235109195747
 H   -3.138443957119   -0.293744560001    2.232162551321
 H   -1.220334219599   -2.014592153265    2.220407652922
RB   -1.104426890641   -0.953549388183   -3.970686798690
