17

 N   -1.095183885217   -1.008325158060    2.265051264408
 C    0.115004181627   -0.353118954384    2.269012888376
 N    1.348416595930   -0.951796648846    2.281051173281
 C    2.318839795986   -0.061620507235    2.269178716308
 N    2.115762958573    1.300017626279    2.262343555966
 H    2.919590083824    1.919978166034    2.180355533544
 N    3.644294550223   -0.480295228915    2.190831413073
 H    4.298830755555    0.051507995485    2.758472189803
 H    3.723099637614   -1.480995372850    2.352414751062
 C    0.856489216256    1.986051329810    2.275297342643
 O    0.828908847151    3.214224414587    2.271209214215
 C   -0.216295909720    1.012357940536    2.281498540583
 N   -1.587369211489    1.198688985849    2.281423355867
 C   -2.080892706000   -0.039914028196    2.271093256202
 H   -3.138390619268   -0.294060650028    2.268146611776
 H   -1.220280881748   -2.014908243292    2.256391713377
RB   -1.104521773235   -0.952987096278   -4.034698770535
