17

 N   -1.095130547366   -1.008641248088    2.301035324863
 C    0.115057519478   -0.353435044412    2.304996948831
 N    1.348469933781   -0.952112738874    2.317035233736
 C    2.318893133837   -0.061936597263    2.305162776763
 N    2.115816296424    1.299701536251    2.298327616421
 H    2.919643421675    1.919662076006    2.216339593999
 N    3.644347888074   -0.480611318943    2.226815473528
 H    4.298884093406    0.051191905457    2.794456250258
 H    3.723152975465   -1.481311462878    2.388398811517
 C    0.856542554107    1.985735239782    2.311281403098
 O    0.828962185002    3.213908324559    2.307193274670
 C   -0.216242571869    1.012041850508    2.317482601038
 N   -1.587315873638    1.198372895821    2.317407416322
 C   -2.080839368149   -0.040230118224    2.307077316657
 H   -3.138337281417   -0.294376740056    2.304130672231
 H   -1.220227543897   -2.015224333320    2.292375773832
RB   -1.104616655829   -0.952424804372   -4.098710742381
