17

 N   -1.095023871665   -1.009273428142    2.373003445773
 C    0.115164195179   -0.354067224466    2.376965069741
 N    1.348576609482   -0.952744918928    2.389003354646
 C    2.318999809538   -0.062568777317    2.377130897673
 N    2.115922972125    1.299069356197    2.370295737331
 H    2.919750097376    1.919029895952    2.288307714909
 N    3.644454563775   -0.481243498997    2.298783594438
 H    4.298990769107    0.050559725403    2.866424371168
 H    3.723259651166   -1.481943642932    2.460366932427
 C    0.856649229808    1.985103059728    2.383249524008
 O    0.829068860703    3.213276144505    2.379161395580
 C   -0.216135896168    1.011409670454    2.389450721948
 N   -1.587209197937    1.197740715767    2.389375537232
 C   -2.080732692448   -0.040862298278    2.379045437567
 H   -3.138230605716   -0.295008920110    2.376098793141
 H   -1.220120868196   -2.015856513374    2.364343894742
RB   -1.104806421017   -0.951300220560   -4.226734686072
