17

 N   -1.094970533814   -1.009589518170    2.408987506228
 C    0.115217533030   -0.354383314494    2.412949130196
 N    1.348629947333   -0.953061008956    2.424987415101
 C    2.319053147389   -0.062884867345    2.413114958128
 N    2.115976309976    1.298753266169    2.406279797786
 H    2.919803435227    1.918713805924    2.324291775364
 N    3.644507901626   -0.481559589025    2.334767654893
 H    4.299044106958    0.050243635375    2.902408431623
 H    3.723312989017   -1.482259732960    2.496350992882
 C    0.856702567659    1.984786969700    2.419233584463
 O    0.829122198554    3.212960054477    2.415145456035
 C   -0.216082558317    1.011093580426    2.425434782403
 N   -1.587155860086    1.197424625739    2.425359597687
 C   -2.080679354597   -0.041178388306    2.415029498022
 H   -3.138177267865   -0.295325010138    2.412082853596
 H   -1.220067530345   -2.016172603402    2.400327955197
RB   -1.104901303611   -0.950737928655   -4.290746657917
