17

 N   -1.094917195963   -1.009905608197    2.444971566683
 C    0.115270870881   -0.354699404521    2.448933190651
 N    1.348683285184   -0.953377098983    2.460971475556
 C    2.319106485240   -0.063200957372    2.449099018583
 N    2.116029647827    1.298437176142    2.442263858241
 H    2.919856773078    1.918397715897    2.360275835819
 N    3.644561239477   -0.481875679052    2.370751715348
 H    4.299097444809    0.049927545348    2.938392492078
 H    3.723366326868   -1.482575822987    2.532335053337
 C    0.856755905510    1.984470879673    2.455217644918
 O    0.829175536405    3.212643964450    2.451129516490
 C   -0.216029220466    1.010777490399    2.461418842858
 N   -1.587102522235    1.197108535712    2.461343658142
 C   -2.080626016746   -0.041494478333    2.451013558477
 H   -3.138123930014   -0.295641100165    2.448066914051
 H   -1.220014192494   -2.016488693429    2.436312015652
RB   -1.104996186205   -0.950175636749   -4.354758629763
