17

 N   -1.094863858113   -1.010221698224    2.480955627139
 C    0.115324208731   -0.355015494548    2.484917251107
 N    1.348736623034   -0.953693189010    2.496955536012
 C    2.319159823090   -0.063517047399    2.485083079039
 N    2.116082985677    1.298121086115    2.478247918697
 H    2.919910110928    1.918081625870    2.396259896275
 N    3.644614577327   -0.482191769079    2.406735775804
 H    4.299150782659    0.049611455321    2.974376552534
 H    3.723419664718   -1.482891913014    2.568319113793
 C    0.856809243360    1.984154789646    2.491201705374
 O    0.829228874255    3.212327874423    2.487113576946
 C   -0.215975882616    1.010461400372    2.497402903314
 N   -1.587049184385    1.196792445685    2.497327718598
 C   -2.080572678896   -0.041810568360    2.486997618933
 H   -3.138070592164   -0.295957190192    2.484050974507
 H   -1.219960854644   -2.016804783456    2.472296076108
RB   -1.105091068799   -0.949613344843   -4.418770601609
