17

 N   -1.094597168859   -1.011802148361    2.660875929414
 C    0.115590897985   -0.356595944685    2.664837553382
 N    1.349003312288   -0.955273639147    2.676875838287
 C    2.319426512344   -0.065097497536    2.665003381314
 N    2.116349674931    1.296540635978    2.658168220972
 H    2.920176800182    1.916501175733    2.576180198550
 N    3.644881266581   -0.483772219216    2.586656078079
 H    4.299417471913    0.048031005184    3.154296854809
 H    3.723686353972   -1.484472363151    2.748239416068
 C    0.857075932614    1.982574339509    2.671122007649
 O    0.829495563509    3.210747424286    2.667033879221
 C   -0.215709193362    1.008880950235    2.677323205589
 N   -1.586782495131    1.195211995548    2.677248020873
 C   -2.080305989642   -0.043391018497    2.666917921208
 H   -3.137803902910   -0.297537640329    2.663971276782
 H   -1.219694165390   -2.018385233593    2.652216378383
RB   -1.105565481769   -0.946801885314   -4.738830460836
