17

 N   -1.094437155307   -1.012750418443    2.768828110780
 C    0.115750911537   -0.357544214767    2.772789734748
 N    1.349163325840   -0.956221909229    2.784828019653
 C    2.319586525896   -0.066045767618    2.772955562680
 N    2.116509688483    1.295592365896    2.766120402338
 H    2.920336813734    1.915552905651    2.684132379916
 N    3.645041280133   -0.484720489298    2.694608259445
 H    4.299577485465    0.047082735102    3.262249036175
 H    3.723846367524   -1.485420633233    2.856191597434
 C    0.857235946166    1.981626069427    2.779074189015
 O    0.829655577061    3.209799154204    2.774986060587
 C   -0.215549179810    1.007932680153    2.785275386955
 N   -1.586622481579    1.194263725466    2.785200202239
 C   -2.080145976090   -0.044339288579    2.774870102574
 H   -3.137643889358   -0.298485910411    2.771923458148
 H   -1.219534151838   -2.019333503675    2.760168559749
RB   -1.105850129551   -0.945115009597   -4.930866376373
