17

 N   -1.094063790352   -1.014963048634    3.020716533966
 C    0.116124276492   -0.359756844958    3.024678157934
 N    1.349536690795   -0.958434539420    3.036716442839
 C    2.319959890851   -0.068258397809    3.024843985866
 N    2.116883053438    1.293379735705    3.018008825524
 H    2.920710178689    1.913340275460    2.936020803102
 N    3.645414645088   -0.486933119489    2.946496682631
 H    4.299950850420    0.044870104911    3.514137459361
 H    3.724219732479   -1.487633263424    3.108080020620
 C    0.857609311121    1.979413439236    3.030962612201
 O    0.830028942016    3.207586524013    3.026874483773
 C   -0.215175814855    1.005720049962    3.037163810141
 N   -1.586249116624    1.192051095275    3.037088625425
 C   -2.079772611135   -0.046551918770    3.026758525760
 H   -3.137270524403   -0.300698540602    3.023811881334
 H   -1.219160786883   -2.021546133866    3.012056982935
RB   -1.106514307709   -0.941178966257   -5.378950179292
