17

 N   -1.094010452501   -1.015279138661    3.056700594421
 C    0.116177614343   -0.360072934985    3.060662218389
 N    1.349590028646   -0.958750629447    3.072700503294
 C    2.320013228702   -0.068574487836    3.060828046321
 N    2.116936391289    1.293063645678    3.053992885979
 H    2.920763516540    1.913024185433    2.972004863557
 N    3.645467982939   -0.487249209516    2.982480743086
 H    4.300004188271    0.044554014884    3.550121519816
 H    3.724273070330   -1.487949353451    3.144064081075
 C    0.857662648972    1.979097349209    3.066946672656
 O    0.830082279867    3.207270433986    3.062858544228
 C   -0.215122477004    1.005403959935    3.073147870596
 N   -1.586195778773    1.191735005248    3.073072685880
 C   -2.079719273284   -0.046868008797    3.062742586215
 H   -3.137217186552   -0.301014630629    3.059795941789
 H   -1.219107449032   -2.021862223893    3.048041043390
RB   -1.106609190303   -0.940616674351   -5.442962151137
