17

 N   -1.093903776800   -1.015911318716    3.128668715331
 C    0.116284290044   -0.360705115040    3.132630339299
 N    1.349696704347   -0.959382809502    3.144668624204
 C    2.320119904403   -0.069206667891    3.132796167231
 N    2.117043066990    1.292431465623    3.125961006889
 H    2.920870192241    1.912392005378    3.043972984467
 N    3.645574658640   -0.487881389571    3.054448863996
 H    4.300110863972    0.043921834829    3.622089640726
 H    3.724379746031   -1.488581533506    3.216032201985
 C    0.857769324673    1.978465169154    3.138914793566
 O    0.830188955568    3.206638253931    3.134826665138
 C   -0.215015801303    1.004771779880    3.145115991506
 N   -1.586089103072    1.191102825193    3.145040806790
 C   -2.079612597583   -0.047500188852    3.134710707125
 H   -3.137110510851   -0.301646810684    3.131764062699
 H   -1.219000773331   -2.022494403948    3.120009164300
RB   -1.106798955491   -0.939492090540   -5.570986094829
