17

 N   -1.093850438949   -1.016227408743    3.164652775786
 C    0.116337627895   -0.361021205067    3.168614399754
 N    1.349750042198   -0.959698899529    3.180652684659
 C    2.320173242254   -0.069522757918    3.168780227686
 N    2.117096404841    1.292115375596    3.161945067344
 H    2.920923530092    1.912075915351    3.079957044922
 N    3.645627996491   -0.488197479598    3.090432924451
 H    4.300164201823    0.043605744802    3.658073701181
 H    3.724433083882   -1.488897623533    3.252016262440
 C    0.857822662524    1.978149079127    3.174898854021
 O    0.830242293419    3.206322163904    3.170810725593
 C   -0.214962463452    1.004455689853    3.181100051961
 N   -1.586035765221    1.190786735166    3.181024867245
 C   -2.079559259732   -0.047816278879    3.170694767580
 H   -3.137057173000   -0.301962900711    3.167748123154
 H   -1.218947435480   -2.022810493975    3.155993224755
RB   -1.106893838085   -0.938929798634   -5.634998066674
