17

 N   -1.093743763247   -1.016859588798    3.236620896696
 C    0.116444303597   -0.361653385122    3.240582520664
 N    1.349856717900   -0.960331079584    3.252620805569
 C    2.320279917956   -0.070154937973    3.240748348596
 N    2.117203080543    1.291483195541    3.233913188254
 H    2.921030205794    1.911443735296    3.151925165832
 N    3.645734672193   -0.488829659653    3.162401045361
 H    4.300270877525    0.042973564747    3.730041822091
 H    3.724539759584   -1.489529803588    3.323984383350
 C    0.857929338226    1.977516899072    3.246866974931
 O    0.830348969121    3.205689983849    3.242778846503
 C   -0.214855787750    1.003823509798    3.253068172871
 N   -1.585929089519    1.190154555111    3.252992988155
 C   -2.079452584030   -0.048448458934    3.242662888490
 H   -3.136950497298   -0.302595080766    3.239716244064
 H   -1.218840759778   -2.023442674030    3.227961345665
RB   -1.107083603273   -0.937805214823   -5.763022010365
