17

 N   -1.093690425397   -1.017175678825    3.272604957151
 C    0.116497641447   -0.361969475149    3.276566581119
 N    1.349910055750   -0.960647169611    3.288604866024
 C    2.320333255806   -0.070471028000    3.276732409051
 N    2.117256418393    1.291167105514    3.269897248709
 H    2.921083543644    1.911127645269    3.187909226287
 N    3.645788010043   -0.489145749680    3.198385105816
 H    4.300324215375    0.042657474720    3.766025882546
 H    3.724593097434   -1.489845893615    3.359968443805
 C    0.857982676076    1.977200809045    3.282851035386
 O    0.830402306971    3.205373893822    3.278762906958
 C   -0.214802449900    1.003507419771    3.289052233326
 N   -1.585875751669    1.189838465084    3.288977048610
 C   -2.079399246180   -0.048764548961    3.278646948945
 H   -3.136897159448   -0.302911170793    3.275700304519
 H   -1.218787421928   -2.023758764057    3.263945406120
RB   -1.107178485867   -0.937242922917   -5.827033982211
