17

 N   -1.093370398292   -1.019072218989    3.488509319882
 C    0.116817668552   -0.363866015313    3.492470943850
 N    1.350230082855   -0.962543709775    3.504509228755
 C    2.320653282911   -0.072367568164    3.492636771782
 N    2.117576445498    1.289270565350    3.485801611440
 H    2.921403570749    1.909231105105    3.403813589018
 N    3.646108037148   -0.491042289844    3.414289468547
 H    4.300644242480    0.040760934556    3.981930245277
 H    3.724913124539   -1.491742433779    3.575872806536
 C    0.858302703181    1.975304268881    3.498755398117
 O    0.830722334076    3.203477353658    3.494667269689
 C   -0.214482422795    1.001610879607    3.504956596057
 N   -1.585555724564    1.187941924920    3.504881411341
 C   -2.079079219075   -0.050661089125    3.494551311676
 H   -3.136577132343   -0.304807710957    3.491604667250
 H   -1.218467394823   -2.025655304221    3.479849768851
RB   -1.107747781431   -0.933869171482   -6.211105813284
