17

 N   -1.093263722591   -1.019704399044    3.560477440792
 C    0.116924344253   -0.364498195368    3.564439064760
 N    1.350336758556   -0.963175889830    3.576477349665
 C    2.320759958612   -0.072999748219    3.564604892692
 N    2.117683121199    1.288638385295    3.557769732350
 H    2.921510246450    1.908598925050    3.475781709928
 N    3.646214712849   -0.491674469899    3.486257589457
 H    4.300750918181    0.040128754501    4.053898366187
 H    3.725019800240   -1.492374613834    3.647840927446
 C    0.858409378882    1.974672088826    3.570723519027
 O    0.830829009777    3.202845173603    3.566635390599
 C   -0.214375747094    1.000978699552    3.576924716967
 N   -1.585449048863    1.187309744865    3.576849532251
 C   -2.078972543374   -0.051293269180    3.566519432586
 H   -3.136470456642   -0.305439891012    3.563572788160
 H   -1.218360719122   -2.026287484276    3.551817889761
RB   -1.107937546619   -0.932744587671   -6.339129756975
