12

 H   -1.122032701282    2.189453626472    2.995662509207
 H   -0.685802701282    0.637303626472    3.747422509207
 H   -1.968732701282    0.696303626472    2.508962509207
 C   -0.995922701282    1.113923626472    2.806642509207
 S    0.293897298718    0.852803626472    1.517132509207
NA    0.375707298718   -1.591836373528    0.430942509207
NA   -0.487652701282    1.267003626472   -1.008817490793
 S   -0.239134768234   -0.693898905930   -1.234441575914
 C    1.050686861169   -0.955018340306   -2.523951427336
 H    1.176790792616   -2.030547384287   -2.712974195612
 H    0.740562984192   -0.478395830306   -3.464733379911
 H    2.023486428694   -0.537394597248   -2.226271238616
