12

 H   -1.116442047063    2.205676063309    3.024522122392
 H   -0.680212047063    0.653526063309    3.776282122392
 H   -1.963142047063    0.712526063309    2.537822122392
 C   -0.990332047063    1.130146063309    2.835502122392
 S    0.299487952937    0.869026063309    1.545992122392
NA    0.381297952937   -1.575613936691    0.459802122392
NA   -0.482062047063    1.283226063309   -0.979957877608
 S   -0.250195211011   -0.725993062948   -1.291536879558
 C    1.039626418392   -0.987112497324   -2.581046730980
 H    1.165730349839   -2.062641541305   -2.770069499256
 H    0.729502541416   -0.510489987324   -3.521828683554
 H    2.012425985918   -0.569488754266   -2.283366542259
