12

 H   -1.099670084406    2.254343373820    3.111100961949
 H   -0.663440084406    0.702193373820    3.862860961949
 H   -1.946370084406    0.761193373820    2.624400961949
 C   -0.973560084406    1.178813373820    2.922080961949
 S    0.316259915594    0.917693373820    1.632570961949
NA    0.398069915594   -1.526946626180    0.546380961949
NA   -0.465290084406    1.331893373820   -0.893379038051
 S   -0.283376539341   -0.822275534001   -1.462822790489
 C    1.006445090062   -1.083394968377   -2.752332641910
 H    1.132549021509   -2.158924012358   -2.941355410186
 H    0.696321213085   -0.606772458377   -3.693114594485
 H    1.979244657587   -0.665771225319   -2.454652453190
