12

 H   -1.094079430187    2.270565810658    3.139960575135
 H   -0.657849430187    0.718415810658    3.891720575135
 H   -1.940779430187    0.777415810658    2.653260575135
 C   -0.967969430187    1.195035810658    2.950940575135
 S    0.321850569813    0.933915810658    1.661430575135
NA    0.403660569813   -1.510724189342    0.575240575135
NA   -0.459699430187    1.348115810658   -0.864519424865
 S   -0.294436982118   -0.854369691019   -1.519918094132
 C    0.995384647285   -1.115489125395   -2.809427945554
 H    1.121488578732   -2.191018169376   -2.998450713830
 H    0.685260770309   -0.638866615395   -3.750209898129
 H    1.968184214811   -0.697865382337   -2.511747756833
