12

 H   -1.026991579559    2.465235052702    3.486275933362
 H   -0.590761579559    0.913085052702    4.238035933362
 H   -1.873691579559    0.972085052702    2.999575933362
 C   -0.900881579559    1.389705052702    3.297255933362
 S    0.388938420441    1.128585052702    2.007745933362
NA    0.470748420441   -1.316054947298    0.921555933362
NA   -0.392611579559    1.542785052702   -0.518204066638
 S   -0.427162295439   -1.239499575232   -2.205061737855
 C    0.862659333965   -1.500619009607   -3.494571589277
 H    0.988763265411   -2.576148053588   -3.683594357553
 H    0.552535456988   -1.023996499607   -4.435353541851
 H    1.835458901490   -1.082995266549   -3.196891400556
