12

 H   -1.021400925340    2.481457489539    3.515135546548
 H   -0.585170925340    0.929307489539    4.266895546548
 H   -1.868100925340    0.988307489539    3.028435546548
 C   -0.895290925340    1.405927489539    3.326115546548
 S    0.394529074660    1.144807489539    2.036605546548
NA    0.476339074660   -1.299832510461    0.950415546548
NA   -0.387020925340    1.559007489539   -0.489344453452
 S   -0.438222738216   -1.271593732250   -2.262157041498
 C    0.851598891188   -1.532713166625   -3.551666892920
 H    0.977702822635   -2.608242210606   -3.740689661196
 H    0.541475014211   -1.056090656625   -4.492448845495
 H    1.824398458713   -1.115089423567   -3.253986704199
