12

 H   -0.999038308464    2.546347236888    3.630573999291
 H   -0.562808308464    0.994197236888    4.382333999291
 H   -1.845738308464    1.053197236888    3.143873999291
 C   -0.872928308464    1.470817236888    3.441553999291
 S    0.416891691536    1.209697236888    2.152043999291
NA    0.498701691536   -1.234942763112    1.065853999291
NA   -0.364658308464    1.623897236888   -0.373906000709
 S   -0.482464509322   -1.399970360320   -2.490538256072
 C    0.807357120081   -1.661089794696   -3.780048107494
 H    0.933461051528   -2.736618838677   -3.969070875770
 H    0.497233243104   -1.184467284696   -4.720830060069
 H    1.780156687606   -1.243466051638   -3.482367918774
