12

 H   -0.987857000026    2.578792110562    3.688293225662
 H   -0.551627000026    1.026642110562    4.440053225662
 H   -1.834557000026    1.085642110562    3.201593225662
 C   -0.861747000026    1.503262110562    3.499273225662
 S    0.428072999974    1.242142110562    2.209763225662
NA    0.509882999974   -1.202497889438    1.123573225662
NA   -0.353477000026    1.656342110562   -0.316186774338
 S   -0.504585394876   -1.464158674356   -2.604728863359
 C    0.785236234528   -1.725278108731   -3.894238714781
 H    0.911340165974   -2.800807152713   -4.083261483057
 H    0.475112357551   -1.248655598731   -4.835020667356
 H    1.758035802053   -1.307654365673   -3.596558526061
