12

 H   -0.965494383151    2.643681857910    3.803731678404
 H   -0.529264383151    1.091531857910    4.555491678404
 H   -1.812194383151    1.150531857910    3.317031678404
 C   -0.839384383151    1.568151857910    3.614711678404
 S    0.450435616849    1.307031857910    2.325201678404
NA    0.532245616849   -1.137608142090    1.239011678404
NA   -0.331114383151    1.721231857910   -0.200748321596
 S   -0.548827165983   -1.592535302427   -2.833110077934
 C    0.740994463421   -1.853654736802   -4.122619929356
 H    0.867098394867   -2.929183780783   -4.311642697632
 H    0.430870586444   -1.377032226802   -5.063401881930
 H    1.713794030946   -1.436030993744   -3.824939740635
