12

 H   -0.943131766275    2.708571605258    3.919170131147
 H   -0.506901766275    1.156421605258    4.670930131147
 H   -1.789831766275    1.215421605258    3.432470131147
 C   -0.817021766275    1.633041605258    3.730150131147
 S    0.472798233725    1.371921605258    2.440640131147
NA    0.554608233725   -1.072718394742    1.354450131147
NA   -0.308751766275    1.786121605258   -0.085309868853
 S   -0.593068937090   -1.720911930498   -3.061491292508
 C    0.696752692314   -1.982031364873   -4.351001143930
 H    0.822856623761   -3.057560408854   -4.540023912206
 H    0.386628815337   -1.505408854873   -5.291783096504
 H    1.669552259839   -1.564407621815   -4.053320955209
