12

 H   -0.937541112056    2.724794042095    3.948029744333
 H   -0.501311112056    1.172644042095    4.699789744333
 H   -1.784241112056    1.231644042095    3.461329744333
 C   -0.811431112056    1.649264042095    3.759009744333
 S    0.478388887944    1.388144042095    2.469499744333
NA    0.560198887944   -1.056495957905    1.383309744333
NA   -0.303161112056    1.802344042095   -0.056450255667
 S   -0.604129379867   -1.753006087515   -3.118586596151
 C    0.685692249537   -2.014125521891   -4.408096447573
 H    0.811796180984   -3.089654565872   -4.597119215849
 H    0.375568372560   -1.537503011891   -5.348878400148
 H    1.658491817062   -1.596501778833   -4.110416258853
