12

 H   -0.931950457837    2.741016478932    3.976889357518
 H   -0.495720457837    1.188866478932    4.728649357518
 H   -1.778650457837    1.247866478932    3.490189357518
 C   -0.805840457837    1.665486478932    3.787869357518
 S    0.483979542163    1.404366478932    2.498359357518
NA    0.565789542163   -1.040273521068    1.412169357518
NA   -0.297570457837    1.818566478932   -0.027590642482
 S   -0.615189822643   -1.785100244533   -3.175681899795
 C    0.674631806760   -2.046219678909   -4.465191751217
 H    0.800735738207   -3.121748722890   -4.654214519493
 H    0.364507929783   -1.569597168909   -5.405973703791
 H    1.647431374286   -1.628595935851   -4.167511562496
