12

 H   -0.926359803618    2.757238915770    4.005748970704
 H   -0.490129803618    1.205088915770    4.757508970704
 H   -1.773059803618    1.264088915770    3.519048970704
 C   -0.800249803618    1.681708915770    3.816728970704
 S    0.489570196382    1.420588915770    2.527218970704
NA    0.571380196382   -1.024051084230    1.441028970704
NA   -0.291979803618    1.834788915770    0.001268970704
 S   -0.626250265420   -1.817194401551   -3.232777203438
 C    0.663571363984   -2.078313835926   -4.522287054860
 H    0.789675295430   -3.153842879908   -4.711309823136
 H    0.353447487007   -1.601691325926   -5.463069007435
 H    1.636370931509   -1.660690092868   -4.224606866140
