12

 H   -0.920769149399    2.773461352607    4.034608583889
 H   -0.484539149399    1.221311352607    4.786368583889
 H   -1.767469149399    1.280311352607    3.547908583889
 C   -0.794659149399    1.697931352607    3.845588583889
 S    0.495160850601    1.436811352607    2.556078583889
NA    0.576970850601   -1.007828647393    1.469888583889
NA   -0.286389149399    1.851011352607    0.030128583889
 S   -0.637310708197   -1.849288558569   -3.289872507082
 C    0.652510921207   -2.110407992944   -4.579382358504
 H    0.778614852654   -3.185937036925   -4.768405126780
 H    0.342387044230   -1.633785482944   -5.520164311079
 H    1.625310488732   -1.692784249886   -4.281702169783
