12

 H   -0.915178495180    2.789683789444    4.063468197075
 H   -0.478948495180    1.237533789444    4.815228197075
 H   -1.761878495180    1.296533789444    3.576768197075
 C   -0.789068495180    1.714153789444    3.874448197075
 S    0.500751504820    1.453033789444    2.584938197075
NA    0.582561504820   -0.991606210556    1.498748197075
NA   -0.280798495180    1.867233789444    0.058988197075
 S   -0.648371150973   -1.881382715586   -3.346967810726
 C    0.641450478430   -2.142502149962   -4.636477662147
 H    0.767554409877   -3.218031193943   -4.825500430423
 H    0.331326601453   -1.665879639962   -5.577259614722
 H    1.614250045955   -1.724878406904   -4.338797473427
