12

 H   -0.909587840961    2.805906226281    4.092327810261
 H   -0.473357840961    1.253756226281    4.844087810261
 H   -1.756287840961    1.312756226281    3.605627810261
 C   -0.783477840961    1.730376226281    3.903307810261
 S    0.506342159039    1.469256226281    2.613797810261
NA    0.588152159039   -0.975383773719    1.527607810261
NA   -0.275207840961    1.883456226281    0.087847810261
 S   -0.659431593750   -1.913476872604   -3.404063114369
 C    0.630390035653   -2.174596306980   -4.693572965791
 H    0.756493967100   -3.250125350961   -4.882595734067
 H    0.320266158677   -1.697973796980   -5.634354918366
 H    1.603189603179   -1.756972563921   -4.395892777070
