12

 H   -0.903997186742    2.822128663118    4.121187423446
 H   -0.467767186742    1.269978663118    4.872947423446
 H   -1.750697186742    1.328978663118    3.634487423446
 C   -0.777887186742    1.746598663118    3.932167423446
 S    0.511932813258    1.485478663118    2.642657423446
NA    0.593742813258   -0.959161336882    1.556467423446
NA   -0.269617186742    1.899678663118    0.116707423446
 S   -0.670492036527   -1.945571029622   -3.461158418013
 C    0.619329592877   -2.206690463997   -4.750668269435
 H    0.745433524323   -3.282219507978   -4.939691037711
 H    0.309205715900   -1.730067953997   -5.691450222009
 H    1.592129160402   -1.789066720939   -4.452988080714
