12

 H   -0.898406532523    2.838351099955    4.150047036632
 H   -0.462176532523    1.286201099955    4.901807036632
 H   -1.745106532523    1.345201099955    3.663347036632
 C   -0.772296532523    1.762821099955    3.961027036632
 S    0.517523467477    1.501701099955    2.671517036632
NA    0.599333467477   -0.942938900045    1.585327036632
NA   -0.264026532523    1.915901099955    0.145567036632
 S   -0.681552479304   -1.977665186639   -3.518253721656
 C    0.608269150100   -2.238784621015   -4.807763573078
 H    0.734373081547   -3.314313664996   -4.996786341354
 H    0.298145273123   -1.762162111015   -5.748545525653
 H    1.581068717625   -1.821160877957   -4.510083384357
