12

 H   -0.864862607209    2.935685720977    4.323204715746
 H   -0.428632607209    1.383535720977    5.074964715746
 H   -1.711562607209    1.442535720977    3.836504715746
 C   -0.738752607209    1.860155720977    4.134184715746
 S    0.551067392791    1.599035720977    2.844674715746
NA    0.632877392791   -0.845604279023    1.758484715746
NA   -0.230482607209    2.013235720977    0.318724715746
 S   -0.747915135964   -2.170230128746   -3.860825543517
 C    0.541906493440   -2.431349563121   -5.150335394939
 H    0.668010424886   -3.506878607102   -5.339358163215
 H    0.231782616463   -1.954727053121   -6.091117347514
 H    1.514706060965   -2.013725820063   -4.852655206219
