12

 H   -0.859271952990    2.951908157814    4.352064328931
 H   -0.423041952990    1.399758157814    5.103824328931
 H   -1.705971952990    1.458758157814    3.865364328931
 C   -0.733161952990    1.876378157814    4.163044328931
 S    0.556658047010    1.615258157814    2.873534328931
NA    0.638468047010   -0.829381842186    1.787344328931
NA   -0.224891952990    2.029458157814    0.347584328931
 S   -0.758975578741   -2.202324285763   -3.917920847161
 C    0.530846050663   -2.463443720139   -5.207430698583
 H    0.656949982110   -3.538972764120   -5.396453466859
 H    0.220722173686   -1.986821210139   -6.148212651158
 H    1.503645618188   -2.045819977081   -4.909750509862
