12

 H   -0.853681298771    2.968130594651    4.380923942117
 H   -0.417451298771    1.415980594651    5.132683942117
 H   -1.700381298771    1.474980594651    3.894223942117
 C   -0.727571298771    1.892600594651    4.191903942117
 S    0.562248701229    1.631480594651    2.902393942117
NA    0.644058701229   -0.813159405349    1.816203942117
NA   -0.219301298771    2.045680594651    0.376443942117
 S   -0.770036021517   -2.234418442781   -3.975016150805
 C    0.519785607886   -2.495537877157   -5.264526002226
 H    0.645889539333   -3.571066921138   -5.453548770502
 H    0.209661730909   -2.018915367157   -6.205307954801
 H    1.492585175411   -2.077914134099   -4.966845813506
