12

 H   -0.848090644552    2.984353031488    4.409783555303
 H   -0.411860644552    1.432203031488    5.161543555303
 H   -1.694790644552    1.491203031488    3.923083555303
 C   -0.721980644552    1.908823031488    4.220763555303
 S    0.567839355448    1.647703031488    2.931253555303
NA    0.649649355448   -0.796936968512    1.845063555303
NA   -0.213710644552    2.061903031488    0.405303555303
 S   -0.781096464294   -2.266512599799   -4.032111454448
 C    0.508725165109   -2.527632034175   -5.321621305870
 H    0.634829096556   -3.603161078156   -5.510644074146
 H    0.198601288133   -2.051009524175   -6.262403258445
 H    1.481524732635   -2.110008291116   -5.023941117149
