12

 H   -0.842499990333    3.000575468325    4.438643168488
 H   -0.406269990333    1.448425468325    5.190403168488
 H   -1.689199990333    1.507425468325    3.951943168488
 C   -0.716389990333    1.925045468325    4.249623168488
 S    0.573430009667    1.663925468325    2.960113168488
NA    0.655240009667   -0.780714531675    1.873923168488
NA   -0.208119990333    2.078125468325    0.434163168488
 S   -0.792156907071   -2.298606756817   -4.089206758092
 C    0.497664722333   -2.559726191192   -5.378716609514
 H    0.623768653779   -3.635255235173   -5.567739377790
 H    0.187540845356   -2.083103681192   -6.319498562088
 H    1.470464289858   -2.142102448134   -5.081036420793
