12

 H   -0.836909336114    3.016797905163    4.467502781674
 H   -0.400679336114    1.464647905163    5.219262781674
 H   -1.683609336114    1.523647905163    3.980802781674
 C   -0.710799336114    1.941267905163    4.278482781674
 S    0.579020663886    1.680147905163    2.988972781674
NA    0.660830663886   -0.764492094837    1.902782781674
NA   -0.202529336114    2.094347905163    0.463022781674
 S   -0.803217349848   -2.330700913834   -4.146302061735
 C    0.486604279556   -2.591820348210   -5.435811913157
 H    0.612708211003   -3.667349392191   -5.624834681433
 H    0.176480402579   -2.115197838210   -6.376593865732
 H    1.459403847081   -2.174196605152   -5.138131724436
