12

 H   -0.831318681895    3.033020342000    4.496362394860
 H   -0.395088681895    1.480870342000    5.248122394860
 H   -1.678018681895    1.539870342000    4.009662394860
 C   -0.705208681895    1.957490342000    4.307342394860
 S    0.584611318105    1.696370342000    3.017832394860
NA    0.666421318105   -0.748269658000    1.931642394860
NA   -0.196938681895    2.110570342000    0.491882394860
 S   -0.814277792624   -2.362795070852   -4.203397365379
 C    0.475543836779   -2.623914505228   -5.492907216801
 H    0.601647768226   -3.699443549209   -5.681929985077
 H    0.165419959802   -2.147291995228   -6.433689169375
 H    1.448343404304   -2.206290762170   -5.195227028080
