12

 H   -0.820137373457    3.065465215674    4.554081621231
 H   -0.383907373457    1.513315215674    5.305841621231
 H   -1.666837373457    1.572315215674    4.067381621231
 C   -0.694027373457    1.989935215674    4.365061621231
 S    0.595792626543    1.728815215674    3.075551621231
NA    0.677602626543   -0.715824784326    1.989361621231
NA   -0.185757373457    2.143015215674    0.549601621231
 S   -0.836398678178   -2.426983384888   -4.317587972666
 C    0.453422951226   -2.688102819263   -5.607097824088
 H    0.579526882672   -3.763631863244   -5.796120592364
 H    0.143299074249   -2.211480309263   -6.547879776662
 H    1.426222518751   -2.270479076205   -5.309417635367
