12

 H   -0.814546719238    3.081687652511    4.582941234416
 H   -0.378316719238    1.529537652511    5.334701234416
 H   -1.661246719238    1.588537652511    4.096241234416
 C   -0.688436719238    2.006157652511    4.393921234416
 S    0.601383280762    1.745037652511    3.104411234416
NA    0.683193280762   -0.699602347489    2.018221234416
NA   -0.180166719238    2.159237652511    0.578461234416
 S   -0.847459120955   -2.459077541905   -4.374683276309
 C    0.442362508449   -2.720196976281   -5.664193127731
 H    0.568466439896   -3.795726020262   -5.853215896007
 H    0.132238631472   -2.243574466281   -6.604975080306
 H    1.415162075974   -2.302573233223   -5.366512939011
