12

 H   -0.808956065019    3.097910089348    4.611800847602
 H   -0.372726065019    1.545760089348    5.363560847602
 H   -1.655656065019    1.604760089348    4.125100847602
 C   -0.682846065019    2.022380089348    4.422780847602
 S    0.606973934981    1.761260089348    3.133270847602
NA    0.688783934981   -0.683379910652    2.047080847602
NA   -0.174576065019    2.175460089348    0.607320847602
 S   -0.858519563731   -2.491171698923   -4.431778579953
 C    0.431302065672   -2.752291133299   -5.721288431375
 H    0.557405997119   -3.827820177280   -5.910311199651
 H    0.121178188695   -2.275668623299   -6.662070383949
 H    1.404101633198   -2.334667390240   -5.423608242654
