12

 H   -0.803365410800    3.114132526185    4.640660460788
 H   -0.367135410800    1.561982526185    5.392420460788
 H   -1.650065410800    1.620982526185    4.153960460788
 C   -0.677255410800    2.038602526185    4.451640460788
 S    0.612564589200    1.777482526185    3.162130460788
NA    0.694374589200   -0.667157473815    2.075940460788
NA   -0.168985410800    2.191682526185    0.636180460788
 S   -0.869580006508   -2.523265855941   -4.488873883596
 C    0.420241622896   -2.784385290316   -5.778383735018
 H    0.546345554342   -3.859914334297   -5.967406503294
 H    0.110117745919   -2.307762780316   -6.719165687593
 H    1.393041190421   -2.366761547258   -5.480703546298
