12

 H   -0.781002793924    3.179022273533    4.756098913530
 H   -0.344772793924    1.626872273533    5.507858913530
 H   -1.627702793924    1.685872273533    4.269398913530
 C   -0.654892793924    2.103492273533    4.567078913530
 S    0.634927206076    1.842372273533    3.277568913530
NA    0.716737206076   -0.602267726467    2.191378913530
NA   -0.146622793924    2.256572273533    0.751618913530
 S   -0.913821777615   -2.651642484012   -4.717255098171
 C    0.375999851789   -2.912761918387   -6.006764949593
 H    0.502103783235   -3.988290962368   -6.195787717869
 H    0.065875974812   -2.436139408387   -6.947546902167
 H    1.348799419314   -2.495138175329   -5.709084760872
