12

 H   -0.753049522830    3.260134457719    4.900396979458
 H   -0.316819522830    1.707984457719    5.652156979458
 H   -1.599749522830    1.766984457719    4.413696979458
 C   -0.626939522830    2.184604457719    4.711376979458
 S    0.662880477170    1.923484457719    3.421866979458
NA    0.744690477170   -0.521155542281    2.335676979458
NA   -0.118669522830    2.337684457719    0.895916979458
 S   -0.969123991499   -2.812113269100   -5.002731616388
 C    0.320697637905   -3.073232703476   -6.292241467810
 H    0.446801569352   -4.148761747457   -6.481264236086
 H    0.010573760928   -2.596610193476   -7.233023420385
 H    1.293497205430   -2.655608960418   -5.994561279090
