12

 H   -0.708324289078    3.389913952415    5.131273884944
 H   -0.272094289078    1.837763952415    5.883033884944
 H   -1.555024289078    1.896763952415    4.644573884944
 C   -0.582214289078    2.314383952415    4.942253884944
 S    0.707605710922    2.053263952415    3.652743884944
NA    0.789415710922   -0.391376047585    2.566553884944
NA   -0.073944289078    2.467463952415    1.126793884944
 S   -1.057607533712   -3.068866525242   -5.459494045537
 C    0.232214095691   -3.329985959618   -6.749003896959
 H    0.358318027138   -4.405515003599   -6.938026665235
 H   -0.077909781286   -2.853363449618   -7.689785849533
 H    1.205013663216   -2.912362216559   -6.451323708238
