12

 H   -0.702733634859    3.406136389252    5.160133498129
 H   -0.266503634859    1.853986389252    5.911893498129
 H   -1.549433634859    1.912986389252    4.673433498129
 C   -0.576623634859    2.330606389252    4.971113498129
 S    0.713196365141    2.069486389252    3.681603498129
NA    0.795006365141   -0.375153610748    2.595413498129
NA   -0.068353634859    2.483686389252    1.155653498129
 S   -1.068667976489   -3.100960682260   -5.516589349180
 C    0.221153652914   -3.362080116635   -6.806099200602
 H    0.347257584361   -4.437609160616   -6.995121968878
 H   -0.088970224062   -2.885457606635   -7.746881153177
 H    1.193953220440   -2.944456373577   -6.508419011881
