12

 H   -0.691552326421    3.438581262926    5.217852724500
 H   -0.255322326421    1.886431262926    5.969612724500
 H   -1.538252326421    1.945431262926    4.731152724500
 C   -0.565442326421    2.363051262926    5.028832724500
 S    0.724377673579    2.101931262926    3.739322724500
NA    0.806187673579   -0.342708737074    2.653132724500
NA   -0.057172326421    2.516131262926    1.213372724500
 S   -1.090788862043   -3.165148996295   -5.630779956467
 C    0.199032767361   -3.426268430671   -6.920289807889
 H    0.325136698808   -4.501797474652   -7.109312576165
 H   -0.111091109616   -2.949645920671   -7.861071760464
 H    1.171832334886   -3.008644687613   -6.622609619169
