12

 H   -0.674780363764    3.487248573437    5.304431564057
 H   -0.238550363764    1.935098573437    6.056191564057
 H   -1.521480363764    1.994098573437    4.817731564057
 C   -0.548670363764    2.411718573437    5.115411564057
 S    0.741149636236    2.150598573437    3.825901564057
NA    0.822959636236   -0.294041426563    2.739711564057
NA   -0.040400363764    2.564798573437    1.299951564057
 S   -1.123970190373   -3.261431467348   -5.802065867398
 C    0.165851439031   -3.522550901724   -7.091575718820
 H    0.291955370478   -4.598079945705   -7.280598487096
 H   -0.144272437946   -3.045928391724   -8.032357671395
 H    1.138651006556   -3.104927158666   -6.793895530099
