12

 H   -0.669189709545    3.503471010275    5.333291177243
 H   -0.232959709545    1.951321010275    6.085051177243
 H   -1.515889709545    2.010321010275    4.846591177243
 C   -0.543079709545    2.427941010275    5.144271177243
 S    0.746740290455    2.166821010275    3.854761177243
NA    0.828550290455   -0.277818989725    2.768571177243
NA   -0.034809709545    2.581021010275    1.328811177243
 S   -1.135030633150   -3.293525624366   -5.859161171042
 C    0.154790996254   -3.554645058742   -7.148671022463
 H    0.280894927701   -4.630174102723   -7.337693790739
 H   -0.155332880723   -3.078022548742   -8.089452975038
 H    1.127590563779   -3.137021315684   -6.850990833743
