12

 H   -0.652417746888    3.552138320786    5.419870016800
 H   -0.216187746888    1.999988320786    6.171630016800
 H   -1.499117746888    2.058988320786    4.933170016800
 C   -0.526307746888    2.476608320786    5.230850016800
 S    0.763512253112    2.215488320786    3.941340016800
NA    0.845322253112   -0.229151679214    2.855150016800
NA   -0.018037746888    2.629688320786    1.415390016800
 S   -1.168211961480   -3.389808095419   -6.030447081972
 C    0.121609667924   -3.650927529795   -7.319956933394
 H    0.247713599371   -4.726456573776   -7.508979701670
 H   -0.188514209053   -3.174305019795   -8.260738885969
 H    1.094409235449   -3.233303786737   -7.022276744673
