12

 H   -0.646827092669    3.568360757623    5.448729629985
 H   -0.210597092669    2.016210757623    6.200489629985
 H   -1.493527092669    2.075210757623    4.962029629985
 C   -0.520717092669    2.492830757623    5.259709629985
 S    0.769102907331    2.231710757623    3.970199629985
NA    0.850912907331   -0.212929242377    2.884009629985
NA   -0.012447092669    2.645910757623    1.444249629985
 S   -1.179272404256   -3.421902252437   -6.087542385616
 C    0.110549225147   -3.683021686813   -7.377052237038
 H    0.236653156594   -4.758550730794   -7.566075005314
 H   -0.199574651830   -3.206399176813   -8.317834189612
 H    1.083348792672   -3.265397943754   -7.079372048317
