12

 H   -0.635645784231    3.600805631297    5.506448856357
 H   -0.199415784231    2.048655631297    6.258208856357
 H   -1.482345784231    2.107655631297    5.019748856357
 C   -0.509535784231    2.525275631297    5.317428856357
 S    0.780284215769    2.264155631297    4.027918856357
NA    0.862094215769   -0.180484368703    2.941728856357
NA   -0.001265784231    2.678355631297    1.501968856357
 S   -1.201393289810   -3.486090566472   -6.201732992903
 C    0.088428339594   -3.747210000848   -7.491242844325
 H    0.214532271040   -4.822739044829   -7.680265612601
 H   -0.221695537383   -3.270587490848   -8.432024796899
 H    1.061227907119   -3.329586257790   -7.193562655604
