13

 N   -1.729105530006    1.115861370424    0.000490185793
 C   -0.555365946923    1.843233561934    0.000177706623
 H   -0.673082806986    2.928552020978    0.000061859064
 C   -1.774881503086   -0.277350421443    0.000105131224
 O   -2.826469671642   -0.911453735284    0.000448498328
 N   -0.514440961945   -0.860820477575    0.000522034546
 H   -0.504625164822   -1.879105589441    0.000494730451
 C    0.746813327288   -0.224764990612    0.000539129382
 O    1.780506255356   -0.894028825028   -0.000206536282
 C    0.665334535528    1.235782070778    0.000039231935
 H    1.588734673830    1.812842329644   -0.000301444842
 H   -2.632842705954    1.575515491784    0.000288534193
NA    2.670885435026   -0.438810404568   -0.001258241496
