13

 N   -1.744266291125    1.108110225870    0.000508093502
 C   -0.570526708042    1.835482417380    0.000195614332
 H   -0.688243568105    2.920800876424    0.000079766773
 C   -1.790042264205   -0.285101565997    0.000123038933
 O   -2.841630432761   -0.919204879838    0.000466406037
 N   -0.529601723064   -0.868571622129    0.000539942255
 H   -0.519785925941   -1.886856733995    0.000512638160
 C    0.731652566169   -0.232516135166    0.000557037091
 O    1.765345494237   -0.901779969582   -0.000188628573
 C    0.650173774409    1.228030926224    0.000057139644
 H    1.573573912711    1.805091185090   -0.000283537133
 H   -2.648003467073    1.567764347230    0.000306441902
NA    2.744762591874   -0.401039707076   -0.001345504308
