13

 N   -1.759427052244    1.100359081316    0.000526001211
 C   -0.585687469161    1.827731272826    0.000213522041
 H   -0.703404329224    2.913049731870    0.000097674482
 C   -1.805203025324   -0.292852710551    0.000140946642
 O   -2.856791193880   -0.926956024392    0.000484313746
 N   -0.544762484183   -0.876322766683    0.000557849964
 H   -0.534946687060   -1.894607878549    0.000530545869
 C    0.716491805050   -0.240267279720    0.000574944800
 O    1.750184733118   -0.909531114136   -0.000170720864
 C    0.635013013290    1.220279781670    0.000075047353
 H    1.558413151592    1.797340040536   -0.000265629424
 H   -2.663164228192    1.560013202676    0.000324349611
NA    2.818639748722   -0.363269009584   -0.001432767121
