13

 N   -1.774587813363    1.092607936761    0.000543908921
 C   -0.600848230280    1.819980128271    0.000231429751
 H   -0.718565090343    2.905298587315    0.000115582192
 C   -1.820363786443   -0.300603855106    0.000158854352
 O   -2.871951954999   -0.934707168947    0.000502221456
 N   -0.559923245302   -0.884073911238    0.000575757674
 H   -0.550107448179   -1.902359023104    0.000548453579
 C    0.701331043931   -0.248018424275    0.000592852510
 O    1.735023971999   -0.917282258691   -0.000152813154
 C    0.619852252171    1.212528637115    0.000092955063
 H    1.543252390473    1.789588895981   -0.000247721714
 H   -2.678324989311    1.552262058121    0.000342257321
NA    2.892516905570   -0.325498312092   -0.001520029933
