13

 N   -1.850391618959    1.053852213991    0.000633447467
 C   -0.676652035876    1.781224405501    0.000320968297
 H   -0.794368895939    2.866542864545    0.000205120738
 C   -1.896167592039   -0.339359577876    0.000248392898
 O   -2.947755760595   -0.973462891717    0.000591760002
 N   -0.635727050898   -0.922829634008    0.000665296220
 H   -0.625911253775   -1.941114745874    0.000637992125
 C    0.625527238335   -0.286774147045    0.000682391056
 O    1.659220166403   -0.956037981461   -0.000063274608
 C    0.544048446575    1.173772914345    0.000182493609
 H    1.467448584877    1.750833173211   -0.000158183168
 H   -2.754128794907    1.513506335351    0.000431795867
NA    3.261902689809   -0.136644824633   -0.001956343993
