13

 N   -1.865552380078    1.046101069436    0.000651355177
 C   -0.691812796995    1.773473260946    0.000338876007
 H   -0.809529657058    2.858791719990    0.000223028448
 C   -1.911328353158   -0.347110722431    0.000266300608
 O   -2.962916521714   -0.981214036272    0.000609667712
 N   -0.650887812017   -0.930580778563    0.000683203930
 H   -0.641072014894   -1.948865890429    0.000655899835
 C    0.610366477216   -0.294525291600    0.000700298766
 O    1.644059405284   -0.963789126016   -0.000045366898
 C    0.528887685456    1.166021769790    0.000200401319
 H    1.452287823758    1.743082028656   -0.000140275458
 H   -2.769289556026    1.505755190796    0.000449703577
NA    3.335779846657   -0.098874127141   -0.002043606805
