13

 N   -1.941356185674    1.007345346666    0.000740893723
 C   -0.767616602591    1.734717538176    0.000428414553
 H   -0.885333462654    2.820035997220    0.000312566994
 C   -1.987132158754   -0.385866445201    0.000355839154
 O   -3.038720327310   -1.019969759042    0.000699206258
 N   -0.726691617613   -0.969336501333    0.000772742476
 H   -0.716875820490   -1.987621613199    0.000745438381
 C    0.534562671620   -0.333281014370    0.000789837312
 O    1.568255599688   -1.002544848786    0.000044171648
 C    0.453083879860    1.127266047020    0.000289939865
 H    1.376484018162    1.704326305886   -0.000050736912
 H   -2.845093361622    1.466999468026    0.000539242123
NA    3.705165630896    0.089979360319   -0.002479920866
