13

 N   -1.986838469031    0.984091913003    0.000794616851
 C   -0.813098885948    1.711464104513    0.000482137681
 H   -0.930815746011    2.796782563557    0.000366290122
 C   -2.032614442111   -0.409119878864    0.000409562282
 O   -3.084202610667   -1.043223192705    0.000752929386
 N   -0.772173900970   -0.992589934996    0.000826465604
 H   -0.762358103847   -2.010875046862    0.000799161509
 C    0.489080388263   -0.356534448033    0.000843560440
 O    1.522773316331   -1.025798282449    0.000097894776
 C    0.407601596503    1.104012613357    0.000343662993
 H    1.331001734805    1.681072872223    0.000002986216
 H   -2.890575644979    1.443746034363    0.000592965251
NA    3.926797101439    0.203291452794   -0.002741709302
