13

 N   -2.001999230151    0.976340768449    0.000812524560
 C   -0.828259647068    1.703712959959    0.000500045390
 H   -0.945976507131    2.789031419003    0.000384197831
 C   -2.047775203231   -0.416871023418    0.000427469991
 O   -3.099363371787   -1.050974337259    0.000770837095
 N   -0.787334662090   -1.000341079550    0.000844373313
 H   -0.777518864967   -2.018626191416    0.000817069218
 C    0.473919627143   -0.364285592587    0.000861468149
 O    1.507612555211   -1.033549427003    0.000115802485
 C    0.392440835383    1.096261468803    0.000361570702
 H    1.315840973685    1.673321727669    0.000020893925
 H   -2.905736406099    1.435994889809    0.000610872960
NA    4.000674258287    0.241062150286   -0.002828972114
