13

 N   -2.047481513508    0.953087334786    0.000866247688
 C   -0.873741930425    1.680459526296    0.000553768518
 H   -0.991458790488    2.765777985340    0.000437920959
 C   -2.093257486588   -0.440124457081    0.000481193119
 O   -3.144845655144   -1.074227770922    0.000824560223
 N   -0.832816945447   -1.023594513213    0.000898096441
 H   -0.823001148324   -2.041879625079    0.000870792346
 C    0.428437343786   -0.387539026250    0.000915191277
 O    1.462130271854   -1.056802860666    0.000169525613
 C    0.346958552026    1.073008035140    0.000415293830
 H    1.270358690328    1.650068294006    0.000074617053
 H   -2.951218689456    1.412741456146    0.000664596088
NA    4.222305728831    0.354374242762   -0.003090760551
