13

 N   -2.138446080223    0.906580467461    0.000973693944
 C   -0.964706497140    1.633952658971    0.000661214774
 H   -1.082423357203    2.719271118015    0.000545367215
 C   -2.184222053303   -0.486631324406    0.000588639375
 O   -3.235810221859   -1.120734638247    0.000932006479
 N   -0.923781512162   -1.070101380538    0.001005542697
 H   -0.913965715039   -2.088386492404    0.000978238602
 C    0.337472777071   -0.434045893575    0.001022637533
 O    1.371165705139   -1.103309727991    0.000276971869
 C    0.255993985311    1.026501167815    0.000522740086
 H    1.179394123613    1.603561426681    0.000182063309
 H   -3.042183256171    1.366234588821    0.000772042344
NA    4.665568669918    0.580998427713   -0.003614337423
