13

 N   -2.199089124700    0.875575889245    0.001045324781
 C   -1.025349541617    1.602948080755    0.000732845611
 H   -1.143066401680    2.688266539799    0.000616998052
 C   -2.244865097780   -0.517635902622    0.000660270212
 O   -3.296453266336   -1.151739216463    0.001003637316
 N   -0.984424556639   -1.101105958754    0.001077173534
 H   -0.974608759516   -2.119391070620    0.001049869439
 C    0.276829732594   -0.465050471791    0.001094268370
 O    1.310522660662   -1.134314306207    0.000348602706
 C    0.195350940834    0.995496589599    0.000594370923
 H    1.118751079136    1.572556848465    0.000253694146
 H   -3.102826300648    1.335230010605    0.000843673181
NA    4.961077297309    0.732081217681   -0.003963388672
