13

 N   -2.229410646938    0.860073600136    0.001081140200
 C   -1.055671063855    1.587445791646    0.000768661030
 H   -1.173387923918    2.672764250690    0.000652813471
 C   -2.275186620018   -0.533138191731    0.000696085631
 O   -3.326774788574   -1.167241505572    0.001039452735
 N   -1.014746078877   -1.116608247863    0.001112988953
 H   -1.004930281754   -2.134893359729    0.001085684858
 C    0.246508210356   -0.480552760900    0.001130083789
 O    1.280201138424   -1.149816595316    0.000384418125
 C    0.165029418596    0.979994300490    0.000630186342
 H    1.088429556898    1.557054559356    0.000289509565
 H   -3.133147822886    1.319727721496    0.000879488600
NA    5.108831611004    0.807622612664   -0.004137914296
