13

 N   -2.244571408057    0.852322455582    0.001099047909
 C   -1.070831824974    1.579694647092    0.000786568739
 H   -1.188548685037    2.665013106136    0.000670721180
 C   -2.290347381137   -0.540889336285    0.000713993340
 O   -3.341935549693   -1.174992650126    0.001057360444
 N   -1.029906839996   -1.124359392417    0.001130896662
 H   -1.020091042873   -2.142644504283    0.001103592567
 C    0.231347449237   -0.488303905454    0.001147991498
 O    1.265040377305   -1.157567739870    0.000402325834
 C    0.149868657477    0.972243155936    0.000648094051
 H    1.073268795779    1.549303414802    0.000307417274
 H   -3.148308584005    1.311976576942    0.000897396309
NA    5.182708767852    0.845393310156   -0.004225177108
