13

 N   -2.259732169176    0.844571311028    0.001116955618
 C   -1.085992586093    1.571943502538    0.000804476448
 H   -1.203709446156    2.657261961582    0.000688628889
 C   -2.305508142256   -0.548640480839    0.000731901049
 O   -3.357096310812   -1.182743794680    0.001075268153
 N   -1.045067601115   -1.132110536971    0.001148804371
 H   -1.035251803992   -2.150395648837    0.001121500276
 C    0.216186688118   -0.496055050008    0.001165899207
 O    1.249879616186   -1.165318884424    0.000420233543
 C    0.134707896358    0.964492011382    0.000666001760
 H    1.058108034660    1.541552270248    0.000325324983
 H   -3.163469345124    1.304225432388    0.000915304018
NA    5.256585924700    0.883164007648   -0.004312439920
