13

 N   -2.335535974772    0.805815588257    0.001206494165
 C   -1.161796391689    1.533187779767    0.000894014995
 H   -1.279513251752    2.618506238811    0.000778167436
 C   -2.381311947852   -0.587396203610    0.000821439596
 O   -3.432900116408   -1.221499517451    0.001164806700
 N   -1.120871406711   -1.170866259742    0.001238342918
 H   -1.111055609588   -2.189151371608    0.001211038823
 C    0.140382882522   -0.534810772779    0.001255437754
 O    1.174075810590   -1.204074607195    0.000509772090
 C    0.058904090762    0.925736288611    0.000755540307
 H    0.982304229064    1.502796547477    0.000414863530
 H   -3.239273150720    1.265469709617    0.001004842565
NA    5.625971708939    1.072017495107   -0.004748753981
