13

 N   -2.350696735891    0.798064443703    0.001224401874
 C   -1.176957152808    1.525436635213    0.000911922704
 H   -1.294674012871    2.610755094257    0.000796075145
 C   -2.396472708971   -0.595147348164    0.000839347305
 O   -3.448060877527   -1.229250662005    0.001182714409
 N   -1.136032167830   -1.178617404296    0.001256250627
 H   -1.126216370707   -2.196902516162    0.001228946532
 C    0.125222121403   -0.542561917333    0.001273345463
 O    1.158915049471   -1.211825751749    0.000527679799
 C    0.043743329643    0.917985144057    0.000773448016
 H    0.967143467945    1.495045402923    0.000432771239
 H   -3.254433911839    1.257718565063    0.001022750274
NA    5.699848865787    1.109788192599   -0.004836016793
