13

 N   -2.381018258130    0.782562154595    0.001260217293
 C   -1.207278675047    1.509934346105    0.000947738123
 H   -1.324995535110    2.595252805149    0.000831890564
 C   -2.426794231210   -0.610649637272    0.000875162724
 O   -3.478382399766   -1.244752951113    0.001218529828
 N   -1.166353690069   -1.194119693404    0.001292066046
 H   -1.156537892946   -2.212404805270    0.001264761951
 C    0.094900599164   -0.558064206441    0.001309160882
 O    1.128593527232   -1.227328040857    0.000563495218
 C    0.013421807404    0.902482854949    0.000809263435
 H    0.936821945706    1.479543113815    0.000468586658
 H   -3.284755434078    1.242216275955    0.001058565693
NA    5.847603179483    1.185329587583   -0.005010542417
