13

 N   -2.426500541487    0.759308720932    0.001313940421
 C   -1.252760958404    1.486680912442    0.001001461251
 H   -1.370477818467    2.571999371486    0.000885613692
 C   -2.472276514567   -0.633903070935    0.000928885852
 O   -3.523864683123   -1.268006384776    0.001272252956
 N   -1.211835973426   -1.217373127067    0.001345789174
 H   -1.202020176303   -2.235658238933    0.001318485079
 C    0.049418315807   -0.581317640104    0.001362884010
 O    1.083111243875   -1.250581474520    0.000617218346
 C   -0.032060475953    0.879229421286    0.000862986563
 H    0.891339662349    1.456289680152    0.000522309786
 H   -3.330237717435    1.218962842292    0.001112288821
NA    6.069234650026    1.298641680059   -0.005272330854
