13

 N   -2.456822063725    0.743806431824    0.001349755839
 C   -1.283082480642    1.471178623334    0.001037276669
 H   -1.400799340705    2.556497082378    0.000921429110
 C   -2.502598036805   -0.649405360043    0.000964701270
 O   -3.554186205361   -1.283508673884    0.001308068374
 N   -1.242157495664   -1.232875416175    0.001381604592
 H   -1.232341698541   -2.251160528041    0.001354300497
 C    0.019096793569   -0.596819929212    0.001398699428
 O    1.052789721637   -1.266083763628    0.000653033764
 C   -0.062381998191    0.863727132178    0.000898801981
 H    0.861018140111    1.440787391044    0.000558125204
 H   -3.360559239673    1.203460553184    0.001148104239
NA    6.216988963722    1.374183075043   -0.005446856478
