13

 N   -2.578108152679    0.681797275390    0.001493017514
 C   -1.404368569596    1.409169466900    0.001180538344
 H   -1.522085429659    2.494487925944    0.001064690785
 C   -2.623884125759   -0.711414516477    0.001107962945
 O   -3.675472294315   -1.345517830318    0.001451330049
 N   -1.363443584618   -1.294884572609    0.001524866267
 H   -1.353627787495   -2.313169684475    0.001497562172
 C   -0.102189295385   -0.658829085646    0.001541961103
 O    0.931503632683   -1.328092920062    0.000796295439
 C   -0.183668087145    0.801717975744    0.001042063656
 H    0.739732051157    1.378778234610    0.000701386879
 H   -3.481845328627    1.141451396750    0.001291365914
NA    6.808006218504    1.676348654978   -0.006144958975
