13

 N   -2.593268913798    0.674046130836    0.001510925223
 C   -1.419529330715    1.401418322346    0.001198446053
 H   -1.537246190778    2.486736781390    0.001082598494
 C   -2.639044886878   -0.719165661031    0.001125870654
 O   -3.690633055434   -1.353268974872    0.001469237758
 N   -1.378604345737   -1.302635717163    0.001542773976
 H   -1.368788548614   -2.320920829029    0.001515469881
 C   -0.117350056504   -0.666580230200    0.001559868812
 O    0.916342871564   -1.335844064616    0.000814203148
 C   -0.198828848264    0.793966831190    0.001059971365
 H    0.724571290038    1.371027090056    0.000719294588
 H   -3.497006089746    1.133700252196    0.001309273623
NA    6.881883375352    1.714119352469   -0.006232221787
