13

 N   -2.608429674917    0.666294986282    0.001528832932
 C   -1.434690091834    1.393667177792    0.001216353762
 H   -1.552406951897    2.478985636836    0.001100506203
 C   -2.654205647997   -0.726916805585    0.001143778363
 O   -3.705793816553   -1.361020119426    0.001487145467
 N   -1.393765106856   -1.310386861717    0.001560681685
 H   -1.383949309733   -2.328671973583    0.001533377590
 C   -0.132510817623   -0.674331374754    0.001577776521
 O    0.901182110445   -1.343595209170    0.000832110857
 C   -0.213989609383    0.786215686636    0.001077879074
 H    0.709410528919    1.363275945502    0.000737202297
 H   -3.512166850865    1.125949107642    0.001327181332
NA    6.955760532200    1.751890049961   -0.006319484599
