13

 N   -2.623590436036    0.658543841728    0.001546740642
 C   -1.449850852953    1.385916033238    0.001234261472
 H   -1.567567713016    2.471234492282    0.001118413913
 C   -2.669366409116   -0.734667950139    0.001161686073
 O   -3.720954577672   -1.368771263980    0.001505053177
 N   -1.408925867975   -1.318138006271    0.001578589395
 H   -1.399110070852   -2.336423118137    0.001551285300
 C   -0.147671578742   -0.682082519308    0.001595684231
 O    0.886021349326   -1.351346353724    0.000850018567
 C   -0.229150370502    0.778464542082    0.001095786784
 H    0.694249767800    1.355524800948    0.000755110007
 H   -3.527327611984    1.118197963088    0.001345089042
NA    7.029637689048    1.789660747453   -0.006406747411
