13

 N   -2.653911958275    0.643041552620    0.001582556060
 C   -1.480172375192    1.370413744130    0.001270076890
 H   -1.597889235255    2.455732203174    0.001154229331
 C   -2.699687931355   -0.750170239247    0.001197501491
 O   -3.751276099911   -1.384273553088    0.001540868595
 N   -1.439247390214   -1.333640295379    0.001614404813
 H   -1.429431593091   -2.351925407245    0.001587100718
 C   -0.177993100981   -0.697584808416    0.001631499649
 O    0.855699827087   -1.366848642832    0.000885833985
 C   -0.259471892741    0.762962252974    0.001131602202
 H    0.663928245561    1.340022511840    0.000790925425
 H   -3.557649134223    1.102695673980    0.001380904460
NA    7.177392002744    1.865202142437   -0.006581273035
