13

 N   -2.684233480513    0.627539263511    0.001618371479
 C   -1.510493897430    1.354911455021    0.001305892309
 H   -1.628210757493    2.440229914065    0.001190044750
 C   -2.730009453593   -0.765672528356    0.001233316910
 O   -3.781597622149   -1.399775842197    0.001576684014
 N   -1.469568912452   -1.349142584488    0.001650220232
 H   -1.459753115329   -2.367427696354    0.001622916137
 C   -0.208314623219   -0.713087097525    0.001667315068
 O    0.825378304849   -1.382350931941    0.000921649404
 C   -0.289793414979    0.747459963865    0.001167417621
 H    0.633606723323    1.324520222731    0.000826740844
 H   -3.587970656461    1.087193384871    0.001416719879
NA    7.325146316439    1.940743537421   -0.006755798660
