13

 N   -2.790358808347    0.573281251632    0.001743725444
 C   -1.616619225264    1.300653443142    0.001431246274
 H   -1.734336085327    2.385971902186    0.001315398715
 C   -2.836134781427   -0.819930540235    0.001358670875
 O   -3.887722949983   -1.454033854076    0.001702037979
 N   -1.575694240286   -1.403400596367    0.001775574197
 H   -1.565878443163   -2.421685708233    0.001748270102
 C   -0.314439951053   -0.767345109404    0.001792669033
 O    0.719252977015   -1.436608943820    0.001047003369
 C   -0.395918742813    0.693201951986    0.001292771586
 H    0.527481395489    1.270262210852    0.000952094809
 H   -3.694095984295    1.032935372992    0.001542073844
NA    7.842286414374    2.205138419864   -0.007366638344
