13

 N   -2.820680330585    0.557778962524    0.001779540863
 C   -1.646940747502    1.285151154034    0.001467061693
 H   -1.764657607565    2.370469613078    0.001351214134
 C   -2.866456303665   -0.835432829343    0.001394486294
 O   -3.918044472221   -1.469536143184    0.001737853398
 N   -1.606015762524   -1.418902885475    0.001811389616
 H   -1.596199965401   -2.437187997341    0.001784085521
 C   -0.344761473291   -0.782847398512    0.001828484452
 O    0.688931454777   -1.452111232928    0.001082818788
 C   -0.426240265051    0.677699662878    0.001328587005
 H    0.497159873251    1.254759921744    0.000987910228
 H   -3.724417506533    1.017433083884    0.001577889263
NA    7.990040728070    2.280679814848   -0.007541163969
