13

 N   -2.835841091705    0.550027817970    0.001797448572
 C   -1.662101508622    1.277400009480    0.001484969402
 H   -1.779818368685    2.362718468524    0.001369121843
 C   -2.881617064785   -0.843183973897    0.001412394003
 O   -3.933205233341   -1.477287287738    0.001755761107
 N   -1.621176523644   -1.426654030029    0.001829297325
 H   -1.611360726521   -2.444939141895    0.001801993230
 C   -0.359922234411   -0.790598543066    0.001846392161
 O    0.673770693657   -1.459862377482    0.001100726497
 C   -0.441401026171    0.669948518324    0.001346494714
 H    0.481999112131    1.247008777190    0.001005817937
 H   -3.739578267653    1.009681939330    0.001595796972
NA    8.063917884917    2.318450512339   -0.007628426781
