13

 N   -2.851001852824    0.542276673415    0.001815356281
 C   -1.677262269741    1.269648864925    0.001502877111
 H   -1.794979129804    2.354967323969    0.001387029552
 C   -2.896777825904   -0.850935118452    0.001430301712
 O   -3.948365994460   -1.485038432293    0.001773668816
 N   -1.636337284763   -1.434405174584    0.001847205034
 H   -1.626521487640   -2.452690286450    0.001819900939
 C   -0.375082995530   -0.798349687621    0.001864299870
 O    0.658609932538   -1.467613522037    0.001118634206
 C   -0.456561787290    0.662197373769    0.001364402423
 H    0.466838351012    1.239257632635    0.001023725646
 H   -3.754739028772    1.001930794775    0.001613704681
NA    8.137795041765    2.356221209831   -0.007715689593
