13

 N   -2.881323375062    0.526774384307    0.001851171700
 C   -1.707583791979    1.254146575817    0.001538692530
 H   -1.825300652042    2.339465034861    0.001422844971
 C   -2.927099348142   -0.866437407560    0.001466117131
 O   -3.978687516698   -1.500540721401    0.001809484235
 N   -1.666658807001   -1.449907463692    0.001883020453
 H   -1.656843009878   -2.468192575558    0.001855716358
 C   -0.405404517768   -0.813851976729    0.001900115289
 O    0.628288410300   -1.483115811145    0.001154449625
 C   -0.486883309528    0.646695084661    0.001400217842
 H    0.436516828774    1.223755343527    0.001059541065
 H   -3.785060551010    0.986428505667    0.001649520100
NA    8.285549355461    2.431762604815   -0.007890215217
