13

 N   -2.911644897300    0.511272095199    0.001886987119
 C   -1.737905314217    1.238644286709    0.001574507949
 H   -1.855622174280    2.323962745753    0.001458660390
 C   -2.957420870380   -0.881939696668    0.001501932550
 O   -4.009009038936   -1.516043010509    0.001845299654
 N   -1.696980329239   -1.465409752800    0.001918835872
 H   -1.687164532116   -2.483694864666    0.001891531777
 C   -0.435726040006   -0.829354265837    0.001935930708
 O    0.597966888062   -1.498618100253    0.001190265044
 C   -0.517204831766    0.631192795553    0.001436033261
 H    0.406195306536    1.208253054419    0.001095356484
 H   -3.815382073248    0.970926216559    0.001685335519
NA    8.433303669157    2.507303999799   -0.008064740841
