13

 N   -2.926805658419    0.503520950645    0.001904894828
 C   -1.753066075336    1.230893142155    0.001592415658
 H   -1.870782935399    2.316211601199    0.001476568099
 C   -2.972581631499   -0.889690841222    0.001519840259
 O   -4.024169800055   -1.523794155063    0.001863207363
 N   -1.712141090358   -1.473160897354    0.001936743581
 H   -1.702325293235   -2.491446009220    0.001909439486
 C   -0.450886801125   -0.837105410391    0.001953838417
 O    0.582806126943   -1.506369244807    0.001208172753
 C   -0.532365592885    0.623441650999    0.001453940970
 H    0.391034545417    1.200501909865    0.001113264193
 H   -3.830542834367    0.963175072005    0.001703243228
NA    8.507180826004    2.545074697291   -0.008152003653
