13

 N   -2.941966419539    0.495769806090    0.001922802537
 C   -1.768226836456    1.223141997600    0.001610323367
 H   -1.885943696519    2.308460456644    0.001494475808
 C   -2.987742392619   -0.897441985777    0.001537747968
 O   -4.039330561175   -1.531545299618    0.001881115072
 N   -1.727301851478   -1.480912041909    0.001954651290
 H   -1.717486054355   -2.499197153775    0.001927347195
 C   -0.466047562245   -0.844856554946    0.001971746126
 O    0.567645365823   -1.514120389362    0.001226080462
 C   -0.547526354005    0.615690506444    0.001471848679
 H    0.375873784297    1.192750765310    0.001131171902
 H   -3.845703595487    0.955423927450    0.001721150937
NA    8.581057982852    2.582845394783   -0.008239266466
