13

 N   -2.972287941777    0.480267516982    0.001958617956
 C   -1.798548358694    1.207639708492    0.001646138786
 H   -1.916265218757    2.292958167536    0.001530291227
 C   -3.018063914857   -0.912944274885    0.001573563387
 O   -4.069652083413   -1.547047588726    0.001916930491
 N   -1.757623373716   -1.496414331017    0.001990466709
 H   -1.747807576593   -2.514699442883    0.001963162614
 C   -0.496369084483   -0.860358844054    0.002007561545
 O    0.537323843585   -1.529622678470    0.001261895881
 C   -0.577847876243    0.600188217336    0.001507664098
 H    0.345552262059    1.177248476202    0.001166987321
 H   -3.876025117725    0.939921638342    0.001756966356
NA    8.728812296548    2.658386789766   -0.008413792090
