13

 N   -2.987448702896    0.472516372428    0.001976525665
 C   -1.813709119813    1.199888563938    0.001664046495
 H   -1.931425979876    2.285207022982    0.001548198936
 C   -3.033224675976   -0.920695419439    0.001591471096
 O   -4.084812844532   -1.554798733280    0.001934838200
 N   -1.772784134835   -1.504165475571    0.002008374418
 H   -1.762968337712   -2.522450587437    0.001981070323
 C   -0.511529845602   -0.868109988608    0.002025469254
 O    0.522163082466   -1.537373823024    0.001279803590
 C   -0.593008637362    0.592437072782    0.001525571807
 H    0.330391500940    1.169497331648    0.001184895030
 H   -3.891185878844    0.932170493788    0.001774874065
NA    8.802689453396    2.696157487258   -0.008501054902
