13

 N   -3.048091747373    0.441511794211    0.002048156502
 C   -1.874352164290    1.168883985721    0.001735677332
 H   -1.992069024353    2.254202444765    0.001619829773
 C   -3.093867720453   -0.951699997656    0.001663101933
 O   -4.145455889009   -1.585803311497    0.002006469037
 N   -1.833427179312   -1.535170053788    0.002080005255
 H   -1.823611382189   -2.553455165654    0.002052701160
 C   -0.572172890079   -0.899114566825    0.002097100091
 O    0.461520037989   -1.568378401241    0.001351434427
 C   -0.653651681839    0.561432494565    0.001597202644
 H    0.269748456463    1.138492753431    0.001256525867
 H   -3.951828923321    0.901165915571    0.001846504902
NA    9.098198080787    2.847240277226   -0.008850106150
