13

 N   -3.063252508492    0.433760649657    0.002066064212
 C   -1.889512925409    1.161132841167    0.001753585042
 H   -2.007229785472    2.246451300211    0.001637737483
 C   -3.109028481572   -0.959451142210    0.001681009643
 O   -4.160616650128   -1.593554456051    0.002024376747
 N   -1.848587940431   -1.542921198342    0.002097912965
 H   -1.838772143308   -2.561206310208    0.002070608870
 C   -0.587333651198   -0.906865711379    0.002115007801
 O    0.446359276870   -1.576129545795    0.001369342137
 C   -0.668812442958    0.553681350011    0.001615110354
 H    0.254587695344    1.130741608877    0.001274433577
 H   -3.966989684440    0.893414771017    0.001864412612
NA    9.172075237635    2.885010974718   -0.008937368962
