13

 C    1.725701667371    2.577769947121    0.000000000000
 O    1.606541667371    1.125159947121    0.000000000000
 H    2.505721667371    0.769319947121    0.000000000000
 H    0.706281667371    2.978849947121    0.000000000000
 H    2.251681667371    2.916419947121    0.901190000000
 H    2.251681667371    2.916419947121   -0.901190000000
NA   -0.219988332629   -0.154070052879    0.000000000000
 O   -1.448627922661   -1.014561050976    0.000000000000
 C   -1.567780404218   -2.467172418906    0.000000000000
 H   -2.347807147902   -0.658718751924    0.000000000000
 H   -0.548365187207   -2.868257254977    0.000000000000
 H   -2.093764076225   -2.805825356924   -0.901194832405
 H   -2.093764076225   -2.805825356924    0.901194832405
