13

 C    4.287399673181    4.371882794965    0.000000000000
 O    4.168239673181    2.919272794965    0.000000000000
 H    5.067419673181    2.563432794965    0.000000000000
 H    3.267979673181    4.772962794965    0.000000000000
 H    4.813379673181    4.710532794965    0.901190000000
 H    4.813379673181    4.710532794965   -0.901190000000
NA    2.341709673181    1.640042794965    0.000000000000
 O   -5.849220927028   -4.096563859021    0.000000000000
 C   -5.968373408586   -5.549175226951    0.000000000000
 H   -6.748400152269   -3.740721559968    0.000000000000
 H   -4.948958191575   -5.950260063022    0.000000000000
 H   -6.494357080592   -5.887828164968   -0.901194832405
 H   -6.494357080592   -5.887828164968    0.901194832405
