13

 C    4.438087791170    4.477418844839    0.000000000000
 O    4.318927791170    3.024808844839    0.000000000000
 H    5.218107791170    2.668968844839    0.000000000000
 H    3.418667791170    4.878498844839    0.000000000000
 H    4.964067791170    4.816068844839    0.901190000000
 H    4.964067791170    4.816068844839   -0.901190000000
NA    2.492397791170    1.745578844839    0.000000000000
 O   -6.108079339050   -4.277858141847    0.000000000000
 C   -6.227231820607   -5.730469509777    0.000000000000
 H   -7.007258564291   -3.922015842794    0.000000000000
 H   -5.207816603596   -6.131554345848    0.000000000000
 H   -6.753215492614   -6.069122447795   -0.901194832405
 H   -6.753215492614   -6.069122447795    0.901194832405
