13

 C    4.468225414767    4.498526054813    0.000000000000
 O    4.349065414767    3.045916054813    0.000000000000
 H    5.248245414767    2.690076054813    0.000000000000
 H    3.448805414767    4.899606054813    0.000000000000
 H    4.994205414767    4.837176054813    0.901190000000
 H    4.994205414767    4.837176054813   -0.901190000000
NA    2.522535414767    1.766686054813    0.000000000000
 O   -6.159851021454   -4.314116998412    0.000000000000
 C   -6.279003503012   -5.766728366342    0.000000000000
 H   -7.059030246695   -3.958274699359    0.000000000000
 H   -5.259588286001   -6.167813202413    0.000000000000
 H   -6.804987175018   -6.105381304360   -0.901194832405
 H   -6.804987175018   -6.105381304360    0.901194832405
