13

 C    4.558638285561    4.561847684737    0.000000000000
 O    4.439478285561    3.109237684737    0.000000000000
 H    5.338658285561    2.753397684737    0.000000000000
 H    3.539218285561    4.962927684737    0.000000000000
 H    5.084618285561    4.900497684737    0.901190000000
 H    5.084618285561    4.900497684737   -0.901190000000
NA    2.612948285561    1.830007684737    0.000000000000
 O   -6.315166068667   -4.422893568108    0.000000000000
 C   -6.434318550225   -5.875504936038    0.000000000000
 H   -7.214345293908   -4.067051269055    0.000000000000
 H   -5.414903333214   -6.276589772109    0.000000000000
 H   -6.960302222231   -6.214157874055   -0.901194832405
 H   -6.960302222231   -6.214157874055    0.901194832405
