13

 C    1.906527408957    2.704413206969    0.000000000000
 O    1.787367408957    1.251803206969    0.000000000000
 H    2.686547408957    0.895963206969    0.000000000000
 H    0.887107408957    3.105493206969    0.000000000000
 H    2.432507408957    3.043063206969    0.901190000000
 H    2.432507408957    3.043063206969   -0.901190000000
NA   -0.039162591043   -0.027426793031    0.000000000000
 O   -1.759258017087   -1.232114190368    0.000000000000
 C   -1.878410498644   -2.684725558298    0.000000000000
 H   -2.658437242328   -0.876271891315    0.000000000000
 H   -0.858995281633   -3.085810394369    0.000000000000
 H   -2.404394170651   -3.023378496315   -0.901194832405
 H   -2.404394170651   -3.023378496315    0.901194832405
