13

 C    2.027077903348    2.788842046868    0.000000000000
 O    1.907917903348    1.336232046868    0.000000000000
 H    2.807097903348    0.980392046868    0.000000000000
 H    1.007657903348    3.189922046868    0.000000000000
 H    2.553057903348    3.127492046868    0.901190000000
 H    2.553057903348    3.127492046868   -0.901190000000
NA    0.081387903348    0.057002046868    0.000000000000
 O   -1.966344746704   -1.377149616629    0.000000000000
 C   -2.085497228261   -2.829760984558    0.000000000000
 H   -2.865523971945   -1.021307317576    0.000000000000
 H   -1.066082011250   -3.230845820630    0.000000000000
 H   -2.611480900268   -3.168413922576   -0.901194832405
 H   -2.611480900268   -3.168413922576    0.901194832405
