13

 C    2.087353150544    2.831056466817    0.000000000000
 O    1.968193150544    1.378446466817    0.000000000000
 H    2.867373150544    1.022606466817    0.000000000000
 H    1.067933150544    3.232136466817    0.000000000000
 H    2.613333150544    3.169706466817    0.901190000000
 H    2.613333150544    3.169706466817   -0.901190000000
NA    0.141663150544    0.099216466817    0.000000000000
 O   -2.069888111513   -1.449667329759    0.000000000000
 C   -2.189040593070   -2.902278697689    0.000000000000
 H   -2.969067336754   -1.093825030707    0.000000000000
 H   -1.169625376059   -3.303363533760    0.000000000000
 H   -2.715024265077   -3.240931635707   -0.901194832405
 H   -2.715024265077   -3.240931635707    0.901194832405
