13

 C    2.268178892130    2.957699726665    0.000000000000
 O    2.149018892130    1.505089726665    0.000000000000
 H    3.048198892130    1.149249726665    0.000000000000
 H    1.248758892130    3.358779726665    0.000000000000
 H    2.794158892130    3.296349726665    0.901190000000
 H    2.794158892130    3.296349726665   -0.901190000000
NA    0.322488892130    0.225859726665    0.000000000000
 O   -2.380518205939   -1.667220469151    0.000000000000
 C   -2.499670687496   -3.119831837080    0.000000000000
 H   -3.279697431180   -1.311378170098    0.000000000000
 H   -1.480255470485   -3.520916673151    0.000000000000
 H   -3.025654359503   -3.458484775098   -0.901194832405
 H   -3.025654359503   -3.458484775098    0.901194832405
