13

 C    2.358591762924    3.021021356589    0.000000000000
 O    2.239431762924    1.568411356589    0.000000000000
 H    3.138611762924    1.212571356589    0.000000000000
 H    1.339171762924    3.422101356589    0.000000000000
 H    2.884571762924    3.359671356589    0.901190000000
 H    2.884571762924    3.359671356589   -0.901190000000
NA    0.412901762924    0.289181356589    0.000000000000
 O   -2.535833253152   -1.775997038846    0.000000000000
 C   -2.654985734709   -3.228608406776    0.000000000000
 H   -3.435012478392   -1.420154739794    0.000000000000
 H   -1.635570517698   -3.629693242847    0.000000000000
 H   -3.180969406716   -3.567261344794   -0.901194832405
 H   -3.180969406716   -3.567261344794    0.901194832405
