13

 C    2.569555128108    3.168771826411    0.000000000000
 O    2.450395128108    1.716161826411    0.000000000000
 H    3.349575128108    1.360321826411    0.000000000000
 H    1.550135128108    3.569851826411    0.000000000000
 H    3.095535128108    3.507421826411    0.901190000000
 H    3.095535128108    3.507421826411   -0.901190000000
NA    0.623865128108    0.436931826411    0.000000000000
 O   -2.898235029982   -2.029809034803    0.000000000000
 C   -3.017387511539   -3.482420402733    0.000000000000
 H   -3.797414255223   -1.673966735750    0.000000000000
 H   -1.997972294528   -3.883505238804    0.000000000000
 H   -3.543371183546   -3.821073340750   -0.901194832405
 H   -3.543371183546   -3.821073340750    0.901194832405
