13

 C    2.599692751706    3.189879036386    0.000000000000
 O    2.480532751706    1.737269036386    0.000000000000
 H    3.379712751706    1.381429036386    0.000000000000
 H    1.580272751706    3.590959036386    0.000000000000
 H    3.125672751706    3.528529036386    0.901190000000
 H    3.125672751706    3.528529036386   -0.901190000000
NA    0.654002751706    0.458039036386    0.000000000000
 O   -2.950006712386   -2.066067891368    0.000000000000
 C   -3.069159193943   -3.518679259298    0.000000000000
 H   -3.849185937627   -1.710225592315    0.000000000000
 H   -2.049743976932   -3.919764095369    0.000000000000
 H   -3.595142865950   -3.857332197316   -0.901194832405
 H   -3.595142865950   -3.857332197316    0.901194832405
