13

 C    2.659967998901    3.232093456335    0.000000000000
 O    2.540807998901    1.779483456335    0.000000000000
 H    3.439987998901    1.423643456335    0.000000000000
 H    1.640547998901    3.633173456335    0.000000000000
 H    3.185947998901    3.570743456335    0.901190000000
 H    3.185947998901    3.570743456335   -0.901190000000
NA    0.714277998901    0.500253456335    0.000000000000
 O   -3.053550077195   -2.138585604499    0.000000000000
 C   -3.172702558752   -3.591196972428    0.000000000000
 H   -3.952729302436   -1.782743305446    0.000000000000
 H   -2.153287341741   -3.992281808499    0.000000000000
 H   -3.698686230759   -3.929849910446   -0.901194832405
 H   -3.698686230759   -3.929849910446    0.901194832405
