13

 C    2.991481858477    3.464272766056    0.000000000000
 O    2.872321858477    2.011662766056    0.000000000000
 H    3.771501858477    1.655822766056    0.000000000000
 H    1.972061858477    3.865352766056    0.000000000000
 H    3.517461858477    3.802922766056    0.901190000000
 H    3.517461858477    3.802922766056   -0.901190000000
NA    1.045791858477    0.732432766056    0.000000000000
 O   -3.623038583642   -2.537433026716    0.000000000000
 C   -3.742191065200   -3.990044394646    0.000000000000
 H   -4.522217808883   -2.181590727663    0.000000000000
 H   -2.722775848189   -4.391129230717    0.000000000000
 H   -4.268174737206   -4.328697332664   -0.901194832405
 H   -4.268174737206   -4.328697332664    0.901194832405
