13

 C    3.021619482075    3.485379976031    0.000000000000
 O    2.902459482075    2.032769976031    0.000000000000
 H    3.801639482075    1.676929976031    0.000000000000
 H    2.002199482075    3.886459976031    0.000000000000
 H    3.547599482075    3.824029976031    0.901190000000
 H    3.547599482075    3.824029976031   -0.901190000000
NA    1.075929482075    0.753539976031    0.000000000000
 O   -3.674810266047   -2.573691883281    0.000000000000
 C   -3.793962747604   -4.026303251211    0.000000000000
 H   -4.573989491288   -2.217849584229    0.000000000000
 H   -2.774547530593   -4.427388087282    0.000000000000
 H   -4.319946419611   -4.364956189229   -0.901194832405
 H   -4.319946419611   -4.364956189229    0.901194832405
