13

 C    3.081894729270    3.527594395980    0.000000000000
 O    2.962734729270    2.074984395980    0.000000000000
 H    3.861914729270    1.719144395980    0.000000000000
 H    2.062474729270    3.928674395980    0.000000000000
 H    3.607874729270    3.866244395980    0.901190000000
 H    3.607874729270    3.866244395980   -0.901190000000
NA    1.136204729270    0.795754395980    0.000000000000
 O   -3.778353630855   -2.646209596412    0.000000000000
 C   -3.897506112413   -4.098820964341    0.000000000000
 H   -4.677532856096   -2.290367297359    0.000000000000
 H   -2.878090895402   -4.499905800413    0.000000000000
 H   -4.423489784419   -4.437473902359   -0.901194832405
 H   -4.423489784419   -4.437473902359    0.901194832405
