13

 C    3.112032352868    3.548701605955    0.000000000000
 O    2.992872352868    2.096091605955    0.000000000000
 H    3.892052352868    1.740251605955    0.000000000000
 H    2.092612352868    3.949781605955    0.000000000000
 H    3.638012352868    3.887351605955    0.901190000000
 H    3.638012352868    3.887351605955   -0.901190000000
NA    1.166342352868    0.816861605955    0.000000000000
 O   -3.830125313260   -2.682468452977    0.000000000000
 C   -3.949277794817   -4.135079820907    0.000000000000
 H   -4.729304538501   -2.326626153924    0.000000000000
 H   -2.929862577806   -4.536164656978    0.000000000000
 H   -4.475261466824   -4.473732758925   -0.901194832405
 H   -4.475261466824   -4.473732758925    0.901194832405
