13

 C    3.142169976466    3.569808815929    0.000000000000
 O    3.023009976466    2.117198815929    0.000000000000
 H    3.922189976466    1.761358815929    0.000000000000
 H    2.122749976466    3.970888815929    0.000000000000
 H    3.668149976466    3.908458815929    0.901190000000
 H    3.668149976466    3.908458815929   -0.901190000000
NA    1.196479976466    0.837968815929    0.000000000000
 O   -3.881896995664   -2.718727309542    0.000000000000
 C   -4.001049477221   -4.171338677472    0.000000000000
 H   -4.781076220905   -2.362885010489    0.000000000000
 H   -2.981634260210   -4.572423513543    0.000000000000
 H   -4.527033149228   -4.509991615490   -0.901194832405
 H   -4.527033149228   -4.509991615490    0.901194832405
