13

 C    3.172307600063    3.590916025904    0.000000000000
 O    3.053147600063    2.138306025904    0.000000000000
 H    3.952327600063    1.782466025904    0.000000000000
 H    2.152887600063    3.991996025904    0.000000000000
 H    3.698287600063    3.929566025904    0.901190000000
 H    3.698287600063    3.929566025904   -0.901190000000
NA    1.226617600063    0.859076025904    0.000000000000
 O   -3.933668678068   -2.754986166107    0.000000000000
 C   -4.052821159626   -4.207597534037    0.000000000000
 H   -4.832847903309   -2.399143867055    0.000000000000
 H   -3.033405942615   -4.608682370108    0.000000000000
 H   -4.578804831632   -4.546250472055   -0.901194832405
 H   -4.578804831632   -4.546250472055    0.901194832405
