13

 C    3.353133341650    3.717559285752    0.000000000000
 O    3.233973341650    2.264949285752    0.000000000000
 H    4.133153341650    1.909109285752    0.000000000000
 H    2.333713341650    4.118639285752    0.000000000000
 H    3.879113341650    4.056209285752    0.901190000000
 H    3.879113341650    4.056209285752   -0.901190000000
NA    1.407443341650    0.985719285752    0.000000000000
 O   -4.244298772494   -2.972539305499    0.000000000000
 C   -4.363451254052   -4.425150673428    0.000000000000
 H   -5.143477997735   -2.616697006446    0.000000000000
 H   -3.344036037041   -4.826235509500    0.000000000000
 H   -4.889434926058   -4.763803611446   -0.901194832405
 H   -4.889434926058   -4.763803611446    0.901194832405
