13

 C    3.383270965248    3.738666495726    0.000000000000
 O    3.264110965248    2.286056495726    0.000000000000
 H    4.163290965248    1.930216495726    0.000000000000
 H    2.363850965248    4.139746495726    0.000000000000
 H    3.909250965248    4.077316495726    0.901190000000
 H    3.909250965248    4.077316495726   -0.901190000000
NA    1.437580965248    1.006826495726    0.000000000000
 O   -4.296070454899   -3.008798162064    0.000000000000
 C   -4.415222936456   -4.461409529994    0.000000000000
 H   -5.195249680140   -2.652955863011    0.000000000000
 H   -3.395807719445   -4.862494366065    0.000000000000
 H   -4.941206608463   -4.800062468012   -0.901194832405
 H   -4.941206608463   -4.800062468012    0.901194832405
