13

 C    3.413408588845    3.759773705701    0.000000000000
 O    3.294248588845    2.307163705701    0.000000000000
 H    4.193428588845    1.951323705701    0.000000000000
 H    2.393988588845    4.160853705701    0.000000000000
 H    3.939388588845    4.098423705701    0.901190000000
 H    3.939388588845    4.098423705701   -0.901190000000
NA    1.467718588845    1.027933705701    0.000000000000
 O   -4.347842137303   -3.045057018629    0.000000000000
 C   -4.466994618860   -4.497668386559    0.000000000000
 H   -5.247021362544   -2.689214719577    0.000000000000
 H   -3.447579401849   -4.898753222630    0.000000000000
 H   -4.992978290867   -4.836321324577   -0.901194832405
 H   -4.992978290867   -4.836321324577    0.901194832405
