13

 C    3.443546212443    3.780880915676    0.000000000000
 O    3.324386212443    2.328270915676    0.000000000000
 H    4.223566212443    1.972430915676    0.000000000000
 H    2.424126212443    4.181960915676    0.000000000000
 H    3.969526212443    4.119530915676    0.901190000000
 H    3.969526212443    4.119530915676   -0.901190000000
NA    1.497856212443    1.049040915676    0.000000000000
 O   -4.399613819707   -3.081315875194    0.000000000000
 C   -4.518766301265   -4.533927243124    0.000000000000
 H   -5.298793044948   -2.725473576142    0.000000000000
 H   -3.499351084254   -4.935012079195    0.000000000000
 H   -5.044749973271   -4.872580181142   -0.901194832405
 H   -5.044749973271   -4.872580181142    0.901194832405
