13

 C    3.594234330432    3.886416965549    0.000000000000
 O    3.475074330432    2.433806965549    0.000000000000
 H    4.374254330432    2.077966965549    0.000000000000
 H    2.574814330432    4.287496965549    0.000000000000
 H    4.120214330432    4.225066965549    0.901190000000
 H    4.120214330432    4.225066965549   -0.901190000000
NA    1.648544330432    1.154576965549    0.000000000000
 O   -4.658472231729   -3.262610158021    0.000000000000
 C   -4.777624713286   -4.715221525950    0.000000000000
 H   -5.557651456970   -2.906767858968    0.000000000000
 H   -3.758209496275   -5.116306362021    0.000000000000
 H   -5.303608385293   -5.053874463968   -0.901194832405
 H   -5.303608385293   -5.053874463968    0.901194832405
