13

 C    3.624371954030    3.907524175523    0.000000000000
 O    3.505211954030    2.454914175523    0.000000000000
 H    4.404391954030    2.099074175523    0.000000000000
 H    2.604951954030    4.308604175523    0.000000000000
 H    4.150351954030    4.246174175523    0.901190000000
 H    4.150351954030    4.246174175523   -0.901190000000
NA    1.678681954030    1.175684175523    0.000000000000
 O   -4.710243914133   -3.298869014586    0.000000000000
 C   -4.829396395691   -4.751480382516    0.000000000000
 H   -5.609423139374   -2.943026715533    0.000000000000
 H   -3.809981178679   -5.152565218587    0.000000000000
 H   -5.355380067697   -5.090133320533   -0.901194832405
 H   -5.355380067697   -5.090133320533    0.901194832405
