13

 C    3.684647201225    3.949738595473    0.000000000000
 O    3.565487201225    2.497128595473    0.000000000000
 H    4.464667201225    2.141288595473    0.000000000000
 H    2.665227201225    4.350818595473    0.000000000000
 H    4.210627201225    4.288388595473    0.901190000000
 H    4.210627201225    4.288388595473   -0.901190000000
NA    1.738957201225    1.217898595473    0.000000000000
 O   -4.813787278942   -3.371386727716    0.000000000000
 C   -4.932939760499   -4.823998095646    0.000000000000
 H   -5.712966504183   -3.015544428664    0.000000000000
 H   -3.913524543488   -5.225082931717    0.000000000000
 H   -5.458923432506   -5.162651033664   -0.901194832405
 H   -5.458923432506   -5.162651033664    0.901194832405
