13

 C    3.714784824823    3.970845805447    0.000000000000
 O    3.595624824823    2.518235805447    0.000000000000
 H    4.494804824823    2.162395805447    0.000000000000
 H    2.695364824823    4.371925805447    0.000000000000
 H    4.240764824823    4.309495805447    0.901190000000
 H    4.240764824823    4.309495805447   -0.901190000000
NA    1.769094824823    1.239005805447    0.000000000000
 O   -4.865558961346   -3.407645584281    0.000000000000
 C   -4.984711442904   -4.860256952211    0.000000000000
 H   -5.764738186587   -3.051803285229    0.000000000000
 H   -3.965296225892   -5.261341788282    0.000000000000
 H   -5.510695114910   -5.198909890229   -0.901194832405
 H   -5.510695114910   -5.198909890229    0.901194832405
