13

 C    3.835335319214    4.055274645346    0.000000000000
 O    3.716175319214    2.602664645346    0.000000000000
 H    4.615355319214    2.246824645346    0.000000000000
 H    2.815915319214    4.456354645346    0.000000000000
 H    4.361315319214    4.393924645346    0.901190000000
 H    4.361315319214    4.393924645346   -0.901190000000
NA    1.889645319214    1.323434645346    0.000000000000
 O   -5.072645690963   -3.552681010542    0.000000000000
 C   -5.191798172521   -5.005292378472    0.000000000000
 H   -5.971824916204   -3.196838711490    0.000000000000
 H   -4.172382955510   -5.406377214543    0.000000000000
 H   -5.717781844528   -5.343945316490   -0.901194832405
 H   -5.717781844528   -5.343945316490    0.901194832405
