13

 C    3.865472942812    4.076381855321    0.000000000000
 O    3.746312942812    2.623771855321    0.000000000000
 H    4.645492942812    2.267931855321    0.000000000000
 H    2.846052942812    4.477461855321    0.000000000000
 H    4.391452942812    4.415031855321    0.901190000000
 H    4.391452942812    4.415031855321   -0.901190000000
NA    1.919782942812    1.344541855321    0.000000000000
 O   -5.124417373368   -3.588939867108    0.000000000000
 C   -5.243569854925   -5.041551235037    0.000000000000
 H   -6.023596598609   -3.233097568055    0.000000000000
 H   -4.224154637914   -5.442636071109    0.000000000000
 H   -5.769553526932   -5.380204173055   -0.901194832405
 H   -5.769553526932   -5.380204173055    0.901194832405
