13

 C    3.895610566410    4.097489065295    0.000000000000
 O    3.776450566410    2.644879065295    0.000000000000
 H    4.675630566410    2.289039065295    0.000000000000
 H    2.876190566410    4.498569065295    0.000000000000
 H    4.421590566410    4.436139065295    0.901190000000
 H    4.421590566410    4.436139065295   -0.901190000000
NA    1.949920566410    1.365649065295    0.000000000000
 O   -5.176189055772   -3.625198723673    0.000000000000
 C   -5.295341537329   -5.077810091603    0.000000000000
 H   -6.075368281013   -3.269356424620    0.000000000000
 H   -4.275926320318   -5.478894927674    0.000000000000
 H   -5.821325209336   -5.416463029620   -0.901194832405
 H   -5.821325209336   -5.416463029620    0.901194832405
