13

 C    3.925748190007    4.118596275270    0.000000000000
 O    3.806588190007    2.665986275270    0.000000000000
 H    4.705768190007    2.310146275270    0.000000000000
 H    2.906328190007    4.519676275270    0.000000000000
 H    4.451728190007    4.457246275270    0.901190000000
 H    4.451728190007    4.457246275270   -0.901190000000
NA    1.980058190007    1.386756275270    0.000000000000
 O   -5.227960738176   -3.661457580238    0.000000000000
 C   -5.347113219734   -5.114068948168    0.000000000000
 H   -6.127139963417   -3.305615281185    0.000000000000
 H   -4.327698002723   -5.515153784239    0.000000000000
 H   -5.873096891741   -5.452721886186   -0.901194832405
 H   -5.873096891741   -5.452721886186    0.901194832405
