13

 C    3.955885813605    4.139703485244    0.000000000000
 O    3.836725813605    2.687093485244    0.000000000000
 H    4.735905813605    2.331253485244    0.000000000000
 H    2.936465813605    4.540783485244    0.000000000000
 H    4.481865813605    4.478353485244    0.901190000000
 H    4.481865813605    4.478353485244   -0.901190000000
NA    2.010195813605    1.407863485244    0.000000000000
 O   -5.279732420581   -3.697716436803    0.000000000000
 C   -5.398884902138   -5.150327804733    0.000000000000
 H   -6.178911645822   -3.341874137751    0.000000000000
 H   -4.379469685127   -5.551412640804    0.000000000000
 H   -5.924868574145   -5.488980742751   -0.901194832405
 H   -5.924868574145   -5.488980742751    0.901194832405
