13

 C    3.986023437203    4.160810695219    0.000000000000
 O    3.866863437203    2.708200695219    0.000000000000
 H    4.766043437203    2.352360695219    0.000000000000
 H    2.966603437203    4.561890695219    0.000000000000
 H    4.512003437203    4.499460695219    0.901190000000
 H    4.512003437203    4.499460695219   -0.901190000000
NA    2.040333437203    1.428970695219    0.000000000000
 O   -5.331504102985   -3.733975293369    0.000000000000
 C   -5.450656584542   -5.186586661298    0.000000000000
 H   -6.230683328226   -3.378132994316    0.000000000000
 H   -4.431241367531   -5.587671497369    0.000000000000
 H   -5.976640256549   -5.525239599316   -0.901194832405
 H   -5.976640256549   -5.525239599316    0.901194832405
