13

 C    4.016161060801    4.181917905194    0.000000000000
 O    3.897001060801    2.729307905194    0.000000000000
 H    4.796181060801    2.373467905194    0.000000000000
 H    2.996741060801    4.582997905194    0.000000000000
 H    4.542141060801    4.520567905194    0.901190000000
 H    4.542141060801    4.520567905194   -0.901190000000
NA    2.070471060801    1.450077905194    0.000000000000
 O   -5.383275785389   -3.770234149934    0.000000000000
 C   -5.502428266947   -5.222845517863    0.000000000000
 H   -6.282455010630   -3.414391850881    0.000000000000
 H   -4.483013049936   -5.623930353935    0.000000000000
 H   -6.028411938954   -5.561498455881   -0.901194832405
 H   -6.028411938954   -5.561498455881    0.901194832405
