13

 C    4.076436307996    4.224132325143    0.000000000000
 O    3.957276307996    2.771522325143    0.000000000000
 H    4.856456307996    2.415682325143    0.000000000000
 H    3.057016307996    4.625212325143    0.000000000000
 H    4.602416307996    4.562782325143    0.901190000000
 H    4.602416307996    4.562782325143   -0.901190000000
NA    2.130746307996    1.492292325143    0.000000000000
 O   -5.486819150198   -3.842751863064    0.000000000000
 C   -5.605971631755   -5.295363230994    0.000000000000
 H   -6.385998375439   -3.486909564012    0.000000000000
 H   -4.586556414744   -5.696448067065    0.000000000000
 H   -6.131955303762   -5.634016169012   -0.901194832405
 H   -6.131955303762   -5.634016169012    0.901194832405
