13

 C    4.136711555192    4.266346745092    0.000000000000
 O    4.017551555192    2.813736745092    0.000000000000
 H    4.916731555192    2.457896745092    0.000000000000
 H    3.117291555192    4.667426745092    0.000000000000
 H    4.662691555192    4.604996745092    0.901190000000
 H    4.662691555192    4.604996745092   -0.901190000000
NA    2.191021555192    1.534506745092    0.000000000000
 O   -5.590362515007   -3.915269576195    0.000000000000
 C   -5.709514996564   -5.367880944124    0.000000000000
 H   -6.489541740248   -3.559427277142    0.000000000000
 H   -4.690099779553   -5.768965780196    0.000000000000
 H   -6.235498668571   -5.706533882142   -0.901194832405
 H   -6.235498668571   -5.706533882142    0.901194832405
