9

 C   -1.021663720112   -1.635042881343    0.000000000000
 H   -2.000590720112   -1.143254881343    0.000000000000
 H   -0.914517720112   -2.274851881343    0.888272000000
 H   -0.914517720112   -2.274851881343   -0.888272000000
 C    0.062963279888   -0.589458881343    0.000000000000
 O   -0.098140720112    0.620092118657    0.000000000000
 O    1.305249279888   -1.166466881343    0.000000000000
 H    1.939785279888   -0.427903881343    0.000000000000
NA   -0.256573437031    1.809587420964    0.000000000000
