9

 C   -1.014350761476   -1.689947765333    0.000000000000
 H   -1.993277761476   -1.198159765333    0.000000000000
 H   -0.907204761476   -2.329756765333    0.888272000000
 H   -0.907204761476   -2.329756765333   -0.888272000000
 C    0.070276238524   -0.644363765333    0.000000000000
 O   -0.090827761476    0.565187234667    0.000000000000
 O    1.312562238524   -1.221371765333    0.000000000000
 H    1.947098238524   -0.482808765333    0.000000000000
NA   -0.275665931216    1.952931754024    0.000000000000
