9

 C   -1.007037802841   -1.744852649324    0.000000000000
 H   -1.985964802841   -1.253064649324    0.000000000000
 H   -0.899891802841   -2.384661649324    0.888272000000
 H   -0.899891802841   -2.384661649324   -0.888272000000
 C    0.077589197159   -0.699268649324    0.000000000000
 O   -0.083514802841    0.510282350676    0.000000000000
 O    1.319875197159   -1.276276649324    0.000000000000
 H    1.954411197159   -0.537713649324    0.000000000000
NA   -0.294758425400    2.096276087085    0.000000000000
