9

 C   -0.996068364888   -1.827209975310    0.000000000000
 H   -1.974995364888   -1.335421975310    0.000000000000
 H   -0.888922364888   -2.467018975310    0.888272000000
 H   -0.888922364888   -2.467018975310   -0.888272000000
 C    0.088558635112   -0.781625975310    0.000000000000
 O   -0.072545364888    0.427925024690    0.000000000000
 O    1.330844635112   -1.358633975310    0.000000000000
 H    1.965380635112   -0.620070975310    0.000000000000
NA   -0.323397166677    2.311292586675    0.000000000000
