9

 C   -0.966816530346   -2.046829511273    0.000000000000
 H   -1.945743530346   -1.555041511273    0.000000000000
 H   -0.859670530346   -2.686638511273    0.888272000000
 H   -0.859670530346   -2.686638511273   -0.888272000000
 C    0.117810469654   -1.001245511273    0.000000000000
 O   -0.043293530346    0.208305488727    0.000000000000
 O    1.360096469654   -1.578253511273    0.000000000000
 H    1.994632469654   -0.839690511273    0.000000000000
NA   -0.399767143415    2.884669918917    0.000000000000
