9

 C   -0.963160051028   -2.074281953268    0.000000000000
 H   -1.942087051028   -1.582493953268    0.000000000000
 H   -0.856014051028   -2.714090953268    0.888272000000
 H   -0.856014051028   -2.714090953268   -0.888272000000
 C    0.121466948972   -1.028697953268    0.000000000000
 O   -0.039637051028    0.180853046732    0.000000000000
 O    1.363752948972   -1.605705953268    0.000000000000
 H    1.998288948972   -0.867142953268    0.000000000000
NA   -0.409313390508    2.956342085447    0.000000000000
