9

 C   -0.941221175122   -2.238996605240    0.000000000000
 H   -1.920148175122   -1.747208605240    0.000000000000
 H   -0.834075175122   -2.878805605240    0.888272000000
 H   -0.834075175122   -2.878805605240   -0.888272000000
 C    0.143405824878   -1.193412605240    0.000000000000
 O   -0.017698175122    0.016138394760    0.000000000000
 O    1.385691824878   -1.770420605240    0.000000000000
 H    2.020227824878   -1.031857605240    0.000000000000
NA   -0.466590873061    3.386375084629    0.000000000000
