9

 C   -0.926595257851   -2.348806373221    0.000000000000
 H   -1.905522257851   -1.857018373221    0.000000000000
 H   -0.819449257851   -2.988615373221    0.888272000000
 H   -0.819449257851   -2.988615373221   -0.888272000000
 C    0.158031742149   -1.303222373221    0.000000000000
 O   -0.003072257851   -0.093671373221    0.000000000000
 O    1.400317742149   -1.880230373221    0.000000000000
 H    2.034853742149   -1.141667373221    0.000000000000
NA   -0.504775861430    3.673063750750    0.000000000000
