9

 C   -0.922938778534   -2.376258815217    0.000000000000
 H   -1.901865778534   -1.884470815217    0.000000000000
 H   -0.815792778534   -3.016067815217    0.888272000000
 H   -0.815792778534   -3.016067815217   -0.888272000000
 C    0.161688221466   -1.330674815217    0.000000000000
 O    0.000584221466   -0.121123815217    0.000000000000
 O    1.403974221466   -1.907682815217    0.000000000000
 H    2.038510221466   -1.169119815217    0.000000000000
NA   -0.514322108522    3.744735917280    0.000000000000
