9

 C   -0.911969340581   -2.458616141203    0.000000000000
 H   -1.890896340581   -1.966828141203    0.000000000000
 H   -0.804823340581   -3.098425141203    0.888272000000
 H   -0.804823340581   -3.098425141203   -0.888272000000
 C    0.172657659419   -1.413032141203    0.000000000000
 O    0.011553659419   -0.203481141203    0.000000000000
 O    1.414943659419   -1.990040141203    0.000000000000
 H    2.049479659419   -1.251477141203    0.000000000000
NA   -0.542960849799    3.959752416871    0.000000000000
