9

 C   -0.908312861263   -2.486068583198    0.000000000000
 H   -1.887239861263   -1.994280583198    0.000000000000
 H   -0.801166861263   -3.125877583198    0.888272000000
 H   -0.801166861263   -3.125877583198   -0.888272000000
 C    0.176314138737   -1.440484583198    0.000000000000
 O    0.015210138737   -0.230933583198    0.000000000000
 O    1.418600138737   -2.017492583198    0.000000000000
 H    2.053136138737   -1.278929583198    0.000000000000
NA   -0.552507096891    4.031424583401    0.000000000000
