9

 C   -0.875404547403   -2.733140561156    0.000000000000
 H   -1.854331547403   -2.241352561156    0.000000000000
 H   -0.768258547403   -3.372949561156    0.888272000000
 H   -0.768258547403   -3.372949561156   -0.888272000000
 C    0.209222452597   -1.687556561156    0.000000000000
 O    0.048118452597   -0.478005561156    0.000000000000
 O    1.451508452597   -2.264564561156    0.000000000000
 H    2.086044452597   -1.526001561156    0.000000000000
NA   -0.638423320722    4.676474082173    0.000000000000
