9

 C   -0.849809192179   -2.925307655123    0.000000000000
 H   -1.828736192179   -2.433519655123    0.000000000000
 H   -0.742663192179   -3.565116655123    0.888272000000
 H   -0.742663192179   -3.565116655123   -0.888272000000
 C    0.234817807821   -1.879723655123    0.000000000000
 O    0.073713807821   -0.670172655123    0.000000000000
 O    1.477103807821   -2.456731655123    0.000000000000
 H    2.111639807821   -1.718168655123    0.000000000000
NA   -0.705247050367    5.178179247884    0.000000000000
