9

 C   -0.838839754226   -3.007664981109    0.000000000000
 H   -1.817766754226   -2.515876981109    0.000000000000
 H   -0.731693754226   -3.647473981109    0.888272000000
 H   -0.731693754226   -3.647473981109   -0.888272000000
 C    0.245787245774   -1.962080981109    0.000000000000
 O    0.084683245774   -0.752529981109    0.000000000000
 O    1.488073245774   -2.539088981109    0.000000000000
 H    2.122609245774   -1.800525981109    0.000000000000
NA   -0.733885791644    5.393195747475    0.000000000000
