9

 C   -0.835183274909   -3.035117423104    0.000000000000
 H   -1.814110274909   -2.543329423104    0.000000000000
 H   -0.728037274909   -3.674926423104    0.888272000000
 H   -0.728037274909   -3.674926423104   -0.888272000000
 C    0.249443725091   -1.989533423104    0.000000000000
 O    0.088339725091   -0.779982423104    0.000000000000
 O    1.491729725091   -2.566541423104    0.000000000000
 H    2.126265725091   -1.827978423104    0.000000000000
NA   -0.743432038736    5.464867914005    0.000000000000
