9

 C   -0.831526795591   -3.062569865100    0.000000000000
 H   -1.810453795591   -2.570781865100    0.000000000000
 H   -0.724380795591   -3.702378865100    0.888272000000
 H   -0.724380795591   -3.702378865100   -0.888272000000
 C    0.253100204409   -2.016985865100    0.000000000000
 O    0.091996204409   -0.807434865100    0.000000000000
 O    1.495386204409   -2.593993865100    0.000000000000
 H    2.129922204409   -1.855430865100    0.000000000000
NA   -0.752978285829    5.536540080535    0.000000000000
