9

 C   -0.802274961049   -3.282189401062    0.000000000000
 H   -1.781201961049   -2.790401401062    0.000000000000
 H   -0.695128961049   -3.921998401062    0.888272000000
 H   -0.695128961049   -3.921998401062   -0.888272000000
 C    0.282352038951   -2.236605401062    0.000000000000
 O    0.121248038951   -1.027054401062    0.000000000000
 O    1.524638038951   -2.813613401062    0.000000000000
 H    2.159174038951   -2.075050401062    0.000000000000
NA   -0.829348262567    6.109917412777    0.000000000000
