9

 C   -0.798618481732   -3.309641843058    0.000000000000
 H   -1.777545481732   -2.817853843058    0.000000000000
 H   -0.691472481732   -3.949450843058    0.888272000000
 H   -0.691472481732   -3.949450843058   -0.888272000000
 C    0.286008518268   -2.264057843058    0.000000000000
 O    0.124904518268   -1.054506843058    0.000000000000
 O    1.528294518268   -2.841065843058    0.000000000000
 H    2.162830518268   -2.102502843058    0.000000000000
NA   -0.838894509659    6.181589579307    0.000000000000
