9

 C   -0.794962002414   -3.337094285053    0.000000000000
 H   -1.773889002414   -2.845306285053    0.000000000000
 H   -0.687816002414   -3.976903285053    0.888272000000
 H   -0.687816002414   -3.976903285053   -0.888272000000
 C    0.289664997586   -2.291510285053    0.000000000000
 O    0.128560997586   -1.081959285053    0.000000000000
 O    1.531950997586   -2.868518285053    0.000000000000
 H    2.166486997586   -2.129955285053    0.000000000000
NA   -0.848440756751    6.253261745838    0.000000000000
