9

 C   -0.791305523096   -3.364546727048    0.000000000000
 H   -1.770232523096   -2.872758727048    0.000000000000
 H   -0.684159523096   -4.004355727048    0.888272000000
 H   -0.684159523096   -4.004355727048   -0.888272000000
 C    0.293321476904   -2.318962727048    0.000000000000
 O    0.132217476904   -1.109411727048    0.000000000000
 O    1.535607476904   -2.895970727048    0.000000000000
 H    2.170143476904   -2.157407727048    0.000000000000
NA   -0.857987003844    6.324933912368    0.000000000000
