9

 C   -0.787649043778   -3.391999169044    0.000000000000
 H   -1.766576043778   -2.900211169044    0.000000000000
 H   -0.680503043778   -4.031808169044    0.888272000000
 H   -0.680503043778   -4.031808169044   -0.888272000000
 C    0.296977956222   -2.346415169044    0.000000000000
 O    0.135873956222   -1.136864169044    0.000000000000
 O    1.539263956222   -2.923423169044    0.000000000000
 H    2.173799956222   -2.184860169044    0.000000000000
NA   -0.867533250936    6.396606078898    0.000000000000
