9

 C   -0.780336085143   -3.446904053034    0.000000000000
 H   -1.759263085143   -2.955116053034    0.000000000000
 H   -0.673190085143   -4.086713053034    0.888272000000
 H   -0.673190085143   -4.086713053034   -0.888272000000
 C    0.304290914857   -2.401320053034    0.000000000000
 O    0.143186914857   -1.191769053034    0.000000000000
 O    1.546576914857   -2.978328053034    0.000000000000
 H    2.181112914857   -2.239765053034    0.000000000000
NA   -0.886625745120    6.539950411958    0.000000000000
