9

 C   -0.773023126508   -3.501808937025    0.000000000000
 H   -1.751950126508   -3.010020937025    0.000000000000
 H   -0.665877126508   -4.141617937025    0.888272000000
 H   -0.665877126508   -4.141617937025   -0.888272000000
 C    0.311603873492   -2.456224937025    0.000000000000
 O    0.150499873492   -1.246673937025    0.000000000000
 O    1.553889873492   -3.033232937025    0.000000000000
 H    2.188425873492   -2.294669937025    0.000000000000
NA   -0.905718239305    6.683294745019    0.000000000000
