9

 C   -0.762053688554   -3.584166263011    0.000000000000
 H   -1.740980688554   -3.092378263011    0.000000000000
 H   -0.654907688554   -4.223975263011    0.888272000000
 H   -0.654907688554   -4.223975263011   -0.888272000000
 C    0.322573311446   -2.538582263011    0.000000000000
 O    0.161469311446   -1.329031263011    0.000000000000
 O    1.564859311446   -3.115590263011    0.000000000000
 H    2.199395311446   -2.377027263011    0.000000000000
NA   -0.934356980582    6.898311244610    0.000000000000
