9

 C   -0.754740729919   -3.639071147002    0.000000000000
 H   -1.733667729919   -3.147283147002    0.000000000000
 H   -0.647594729919   -4.278880147002    0.888272000000
 H   -0.647594729919   -4.278880147002   -0.888272000000
 C    0.329886270081   -2.593487147002    0.000000000000
 O    0.168782270081   -1.383936147002    0.000000000000
 O    1.572172270081   -3.170495147002    0.000000000000
 H    2.206708270081   -2.431932147002    0.000000000000
NA   -0.953449474766    7.041655577670    0.000000000000
