9

 C   -0.714519457424   -3.941048008950    0.000000000000
 H   -1.693446457424   -3.449260008950    0.000000000000
 H   -0.607373457424   -4.580857008950    0.888272000000
 H   -0.607373457424   -4.580857008950   -0.888272000000
 C    0.370107542576   -2.895464008950    0.000000000000
 O    0.209003542576   -1.685913008950    0.000000000000
 O    1.612393542576   -3.472472008950    0.000000000000
 H    2.246929542576   -2.733909008950    0.000000000000
NA   -1.058458192781    7.830049409502    0.000000000000
