9

 C   -0.710862978106   -3.968500450946    0.000000000000
 H   -1.689789978106   -3.476712450946    0.000000000000
 H   -0.603716978106   -4.608309450946    0.888272000000
 H   -0.603716978106   -4.608309450946   -0.888272000000
 C    0.373764021894   -2.922916450946    0.000000000000
 O    0.212660021894   -1.713365450946    0.000000000000
 O    1.616050021894   -3.499924450946    0.000000000000
 H    2.250586021894   -2.761361450946    0.000000000000
NA   -1.068004439873    7.901721576033    0.000000000000
