26

 N   -4.180720409146    2.840343734642    0.304322653412
 C   -2.886830409146    3.229463734642    0.193052653412
 H   -2.696720409146    4.301433734642    0.276612653412
 C   -4.617290409146    1.508973734642    0.174862653412
 O   -5.772840409146    1.159963734642    0.261872653412
 N   -3.549350409146    0.617143734642   -0.055627346588
 H   -3.826360409146   -0.355376265358   -0.194777346588
 C   -2.220920409146    0.931313734642   -0.194607346588
 O   -1.374480409146    0.024313734642   -0.431487346588
 C   -1.876700409146    2.318983734642   -0.018077346588
 H   -0.854300409146    2.647903734642   -0.204737346588
 H   -4.922270409146    3.523463734642    0.454522653412
 K   -0.222420409146    0.736633734642    1.856192653412
 K    0.607979590854   -0.744566265358   -1.727947346588
 O    1.241433469530   -0.022888417195    0.395735371666
 C    2.087876205088   -0.929885297429    0.158858029845
 N    3.412480429122   -0.612379548142   -0.006533885739
 H    3.687449595210    0.363273109416    0.113312548922
 C    4.480431691530   -1.503205763591   -0.240865397469
 O    5.632869391670   -1.150794716435   -0.351997994124
 N    4.047643227749   -2.838185511548   -0.342970667956
 H    4.789636950960   -3.520450480874   -0.494875319783
 C    2.757446919720   -3.230906996018   -0.204721159877
 H    2.570698607220   -4.304803006296   -0.268893092117
 C    1.746904521364   -2.321490018219    0.009033984188
 H    0.729118789977   -2.651745574792    0.217320528251
