26

 N   -4.287051453441    2.842539075302    0.268860355308
 C   -2.993161453441    3.231659075302    0.157590355308
 H   -2.803051453441    4.303629075302    0.241150355308
 C   -4.723621453441    1.511169075302    0.139400355308
 O   -5.879171453441    1.162159075302    0.226410355308
 N   -3.655681453441    0.619339075302   -0.091089644692
 H   -3.932691453441   -0.353180924698   -0.230239644692
 C   -2.327251453441    0.933509075302   -0.230069644692
 O   -1.480811453441    0.026509075302   -0.466949644692
 C   -1.983031453441    2.321179075302   -0.053539644692
 H   -0.960631453441    2.650099075302   -0.240199644692
 H   -5.028601453441    3.525659075302    0.419060355308
 K   -0.328751453441    0.738829075302    1.820730355308
 K    0.501648546559   -0.742370924698   -1.763409644692
 O    1.421098937602   -0.025853663400    0.450712905813
 C    2.267541673159   -0.932850543634    0.213835563991
 N    3.594423642203   -0.617230932688    0.063804772775
 H    3.870616188721    0.356630337868    0.194881930815
 C    4.662379471138   -1.508637720375   -0.168287425948
 O    5.816673387786   -1.158160182232   -0.265383780910
 N    4.227332791063   -2.841570458351   -0.286300011231
 H    4.969072175824   -3.524332424718   -0.437210512115
 C    2.934931584301   -3.232249534394   -0.163749677068
 H    2.746188550197   -4.305063657088   -0.239191941261
 C    1.924622275681   -2.322215531156    0.048475801767
 H    0.904106179207   -2.651735283089    0.244188453433
