26

 N   -4.322484533910    2.843266066492    0.257095807156
 C   -3.028594533910    3.232386066492    0.145825807156
 H   -2.838484533910    4.304356066492    0.229385807156
 C   -4.759054533910    1.511896066492    0.127635807156
 O   -5.914604533910    1.162886066492    0.214645807156
 N   -3.691114533910    0.620066066492   -0.102854192844
 H   -3.968124533910   -0.352453933508   -0.242004192844
 C   -2.362684533910    0.934236066492   -0.241834192844
 O   -1.516244533910    0.027236066492   -0.478714192844
 C   -2.018464533910    2.321906066492   -0.065304192844
 H   -0.996064533910    2.650826066492   -0.251964192844
 H   -5.064034533910    3.526386066492    0.407295807156
 K   -0.364184533910    0.739556066492    1.808965807156
 K    0.466215466090   -0.741643933508   -1.775174192844
 O    1.480998027921   -0.026846867832    0.469094968411
 C    2.327440763478   -0.933843748066    0.232217626590
 N    3.654985286343   -0.618825466472    0.086856837610
 H    3.931527713732    0.354471029603    0.221346744230
 C    4.722938013705   -1.510412646090   -0.144555728300
 O    5.877768824690   -1.160548307249   -0.237385655088
 N    4.287235820081   -2.842694210047   -0.267404012415
 H    5.028895787902   -3.525608856607   -0.418013688552
 C    2.994194912610   -3.232723901608   -0.149626020386
 H    2.804867274082   -4.305188455262   -0.228495763924
 C    1.983959626782   -2.322499786570    0.062136033987
 H    0.962637604281   -2.651772516653    0.254022999875
