26

 N   -4.641217148666    2.849710890585    0.152180474948
 C   -3.347327148666    3.238830890585    0.040910474948
 H   -3.157217148666    4.310800890585    0.124470474948
 C   -5.077787148666    1.518340890585    0.022720474948
 O   -6.233337148666    1.169330890585    0.109730474948
 N   -4.009847148666    0.626510890585   -0.207769525052
 H   -4.286857148666   -0.346009109415   -0.346919525052
 C   -2.681417148666    0.940680890585   -0.346749525052
 O   -1.834977148666    0.033680890585   -0.583629525052
 C   -2.337197148666    2.328350890585   -0.170219525052
 H   -1.314797148666    2.657270890585   -0.356879525052
 H   -5.382767148666    3.532830890585    0.302380474948
 K   -0.682917148666    0.746000890585    1.704050474948
 K    0.147482851334   -0.735199109415   -1.880089525052
 O    2.020254950263   -0.035883804333    0.635499132956
 C    2.866697685821   -0.942880684567    0.398621791135
 N    4.198679880042   -0.632675893994    0.287549026321
 H    4.477476582020    0.336186098610    0.447073810144
 C    5.266545755947   -1.525643057447    0.061110031288
 O    6.424927177703   -1.180643232756   -0.000406272191
 N    4.826473327680   -2.852731783346   -0.097237812306
 H    5.567520310367   -3.536790071010   -0.245658920736
 C    3.529172628032   -3.237587350556   -0.014493077244
 H    3.335864123062   -4.307190449228   -0.118544233983
 C    2.519525933069   -2.325931331093    0.193889488071
 H    1.492631235994   -2.653057463538    0.357644142021
