26

 N   -4.712017501072    2.851121643446    0.129052059403
 C   -3.418127501072    3.240241643446    0.017782059403
 H   -3.228017501072    4.312211643446    0.101342059403
 C   -5.148587501072    1.519751643446   -0.000407940597
 O   -6.304137501072    1.170741643446    0.086602059403
 N   -4.080647501072    0.627921643446   -0.230897940597
 H   -4.357657501072   -0.344598356554   -0.370047940597
 C   -2.752217501072    0.942091643446   -0.369877940597
 O   -1.905777501072    0.035091643446   -0.606757940597
 C   -2.407997501072    2.329761643446   -0.193347940597
 H   -1.385597501072    2.658681643446   -0.380007940597
 H   -5.453567501072    3.534241643446    0.279252059403
 K   -0.753717501072    0.747411643446    1.680922059403
 K    0.076682498928   -0.733788356554   -1.903217940597
 O    2.140118939435   -0.037913442715    0.672663938912
 C    2.986561674992   -0.944910322949    0.435786597091
 N    4.319257633555   -0.635639435607    0.330840243306
 H    4.598398799192    0.332376869765    0.494834025446
 C    5.387096113255   -1.528863457725    0.105286857199
 O    6.546039394443   -1.184799955910    0.049363421960
 N    4.946324888602   -2.854948020723   -0.059402934217
 H    5.687256805419   -3.539214844097   -0.207436734318
 C    3.648344077015   -3.238803802039    0.017083378293
 H    3.454382015041   -4.307840974752   -0.091470073383
 C    2.638810908784   -2.326885251330    0.224866387981
 H    1.610984388170   -2.653566129338    0.383586454659
