26

 N   -4.747414814260    2.851824445821    0.117507938141
 C   -3.453524814260    3.240944445821    0.006237938141
 H   -3.263414814260    4.312914445821    0.089797938141
 C   -5.183984814260    1.520454445821   -0.011952061859
 O   -6.339534814260    1.171444445821    0.075057938141
 N   -4.116044814260    0.628624445821   -0.242442061859
 H   -4.393054814260   -0.343895554179   -0.381592061859
 C   -2.787614814260    0.942794445821   -0.381422061859
 O   -1.941174814260    0.035794445821   -0.618302061859
 C   -2.443394814260    2.330464445821   -0.204892061859
 H   -1.420994814260    2.659384445821   -0.391552061859
 H   -5.488964814260    3.534944445821    0.267707938141
 K   -0.789114814260    0.748114445821    1.669377938141
 K    0.041285185740   -0.733085554179   -1.914762061859
 O    2.200053797035   -0.038930835962    0.691266428401
 C    3.046496532593   -0.945927716196    0.454389086580
 N    4.379522207435   -0.637107015823    0.352344674029
 H    4.658820363854    0.330503058724    0.518454883994
 C    5.447346452733   -1.530453795378    0.127210458475
 O    6.606548194007   -1.186840917708    0.073936015965
 N    5.006252910764   -2.856054628478   -0.040483270141
 H    5.747129736937   -3.540420674632   -0.188334006399
 C    3.707958521221   -3.239428862577    0.033038691278
 H    3.513692995044   -4.308192183055   -0.077647713215
 C    2.698480013061   -2.327385249024    0.240538157638
 H    1.670218870757   -2.653848687220    0.396872603136
