26

 N   -4.853596838638    2.853923207780    0.082947935738
 C   -3.559706838638    3.243043207780   -0.028322064262
 H   -3.369596838638    4.315013207780    0.055237935738
 C   -5.290166838638    1.522553207780   -0.046512064262
 O   -6.445716838638    1.173543207780    0.040497935738
 N   -4.222226838638    0.630723207780   -0.277002064262
 H   -4.499236838638   -0.341796792220   -0.416152064262
 C   -2.893796838638    0.944893207780   -0.415982064262
 O   -2.047356838638    0.037893207780   -0.652862064262
 C   -2.549576838638    2.332563207780   -0.239452064262
 H   -1.527176838638    2.661483207780   -0.426112064262
 H   -5.595146838638    3.537043207780    0.233147935738
 K   -0.895296838638    0.750213207780    1.634817935738
 K   -0.064896838638   -0.730986792220   -1.949322064262
 O    2.379868285024   -0.041992660868    0.747146258248
 C    3.226311020581   -0.948989541102    0.510268916427
 N    4.560231163477   -0.641455996714    0.416349225449
 H    4.839947737410    0.324997411736    0.588383425428
 C    5.628011254748   -1.535150193095    0.192387482195
 O    6.787910350816   -1.192823270346    0.146528810173
 N    5.186045016907   -2.859369060270    0.016283806685
 H    5.926765596432   -3.544014425119   -0.131055747942
 C    3.886902019745   -3.241367813595    0.081506728150
 H    3.691807771183   -4.309344623592   -0.035152508459
 C    2.877579573716   -2.328971633822    0.288213890768
 H    1.848124727225   -2.654803947518    0.437866269599
