26

 N   -4.924377668141    2.855314857469    0.059962427640
 C   -3.630487668141    3.244434857469   -0.051307572360
 H   -3.440377668141    4.316404857469    0.032252427640
 C   -5.360947668141    1.523944857469   -0.069497572360
 O   -6.516497668141    1.174934857469    0.017512427640
 N   -4.293007668141    0.632114857469   -0.299987572360
 H   -4.570017668141   -0.340405142531   -0.439137572360
 C   -2.964577668141    0.946284857469   -0.438967572360
 O   -2.118137668141    0.039284857469   -0.675847572360
 C   -2.620357668141    2.333954857469   -0.262437572360
 H   -1.597957668141    2.662874857469   -0.449097572360
 H   -5.665927668141    3.538434857469    0.210162427640
 K   -0.966077668141    0.751604857469    1.611832427640
 K   -0.135677668141   -0.729595142531   -1.972307572360
 O    2.499751797098   -0.044041402422    0.784453971651
 C    3.346194532655   -0.951038282656    0.547576629830
 N    4.680641922482   -0.644312978907    0.458635701548
 H    4.960599515062    0.321417559936    0.634298990548
 C    5.748391823168   -1.538222783947    0.235391636810
 O    6.908699115344   -1.196701599225    0.194076736257
 N    5.305912450148   -2.861574657556    0.054134661309
 H    6.046535821382   -3.546392293409   -0.092892630392
 C    4.006270802209   -3.242710663952    0.114272300698
 H    3.810683946683   -4.310191088919   -0.006047831687
 C    2.997046195172   -2.330096670818    0.320495073654
 H    1.966876706124   -2.655525957512    0.466050613900
