26

 N   -5.030539915026    2.857391999449    0.025555879205
 C   -3.736649915026    3.246511999449   -0.085714120795
 H   -3.546539915026    4.318481999449   -0.002154120795
 C   -5.467109915026    1.526021999449   -0.103904120795
 O   -6.622659915026    1.177011999449   -0.016894120795
 N   -4.399169915026    0.634191999449   -0.334394120795
 H   -4.676179915026   -0.338328000551   -0.473544120795
 C   -3.070739915026    0.948361999449   -0.473374120795
 O   -2.224299915026    0.041361999449   -0.710254120795
 C   -2.726519915026    2.336031999449   -0.296844120795
 H   -1.704119915026    2.664951999449   -0.483504120795
 H   -5.772089915026    3.540511999449    0.175755879205
 K   -1.072239915026    0.753681999449    1.577425879205
 K   -0.241839915026   -0.727518000551   -2.006714120795
 O    2.679586062579   -0.047124847307    0.840487255468
 C    3.526028798136   -0.954121727541    0.603609913647
 N    4.861179844453   -0.648539688512    0.521560917052
 H    5.141451767916    0.316172547295    0.702246470995
 C    5.928884021811   -1.542751359222    0.299309302840
 O    7.089732353908   -1.202367758318    0.264283498040
 N    5.485721492788   -2.864877817623    0.110919098836
 H    6.226208467940   -3.549935311103   -0.035677173818
 C    4.185416391947   -3.244794629313    0.164017733682
 H    3.989166743577   -4.311569834820    0.038628952568
 C    3.176329987282   -2.331876911615    0.369571397317
 H    2.145192384580   -2.656727875852    0.509453159634
