26

 N   -5.065925227321    2.858081801619    0.014104418618
 C   -3.772035227321    3.247201801619   -0.097165581382
 H   -3.581925227321    4.319171801619   -0.013605581382
 C   -5.502495227321    1.526711801619   -0.115355581382
 O   -6.658045227321    1.177701801619   -0.028345581382
 N   -4.434555227321    0.634881801619   -0.345845581382
 H   -4.711565227321   -0.337638198381   -0.484995581382
 C   -3.106125227321    0.949051801619   -0.484825581382
 O   -2.259685227321    0.042051801619   -0.721705581382
 C   -2.761905227321    2.336721801619   -0.308295581382
 H   -1.739505227321    2.665641801619   -0.494955581382
 H   -5.807475227321    3.541201801619    0.164304418618
 K   -1.107625227321    0.754371801619    1.565974418618
 K   -0.277225227321   -0.726828198381   -2.018165581382
 O    2.739532921073   -0.048155240759    0.859182405631
 C    3.585975656631   -0.955152120992    0.622305063810
 N    4.921340733084   -0.649933824756    0.542413630399
 H    5.201706451000    0.314455408425    0.724671111843
 C    5.989029657761   -1.544240809651    0.320472468625
 O    7.150041632684   -1.204218643851    0.287415340056
 N    5.545659747070   -2.865977611547    0.129849235760
 H    6.286103584681   -3.551110525565   -0.016612398717
 C    4.245153349854   -3.245506795761    0.180744355648
 H    4.048700771797   -4.312056908473    0.053768564062
 C    3.236110871023   -2.332493466784    0.386088888142
 H    2.204675242008   -2.657158506551    0.524193802075
