26

 N   -5.101309595114    2.858770383768    0.002661004481
 C   -3.807419595114    3.247890383768   -0.108608995519
 H   -3.617309595114    4.319860383768   -0.025048995519
 C   -5.537879595114    1.527400383768   -0.126798995519
 O   -6.693429595114    1.178390383768   -0.039788995519
 N   -4.469939595114    0.635570383768   -0.357288995519
 H   -4.746949595114   -0.336949616232   -0.496438995519
 C   -3.141509595114    0.949740383768   -0.496268995519
 O   -2.295069595114    0.042740383768   -0.733148995519
 C   -2.797289595114    2.337410383768   -0.319738995519
 H   -1.774889595114    2.666330383768   -0.506398995519
 H   -5.842859595114    3.541890383768    0.152861004481
 K   -1.143009595114    0.755060383768    1.554531004481
 K   -0.312609595114   -0.726139616232   -2.029608995519
 O    2.799480724069   -0.049186854231    0.877885602244
 C    3.645923459626   -0.956183734465    0.641008260422
 N    4.981493299779   -0.651320937371    0.563209713376
 H    5.261947899845    0.312753054002    0.746991853041
 C    6.049167001155   -1.545720749889    0.341569588041
 O    7.210335100311   -1.206051603496    0.310422045761
 N    5.605598881065   -2.867076826415    0.148780299003
 H    6.346000674679   -3.552283051236    0.002449132190
 C    4.304900139544   -3.246227290686    0.197537999408
 H    4.108252794210   -4.312557089461    0.069022662510
 C    3.295900570931   -2.333120975726    0.402679823805
 H    2.264178150217   -2.657603441598    0.539060863681
