26

 N   -5.136693075564    2.859457785208   -0.008774717980
 C   -3.842803075564    3.248577785208   -0.120044717980
 H   -3.652693075564    4.320547785208   -0.036484717980
 C   -5.573263075564    1.528087785208   -0.138234717980
 O   -6.728813075564    1.179077785208   -0.051224717980
 N   -4.505323075564    0.636257785208   -0.368724717980
 H   -4.782333075564   -0.336262214792   -0.507874717980
 C   -3.176893075564    0.950427785208   -0.507704717980
 O   -2.330453075564    0.043427785208   -0.744584717980
 C   -2.832673075564    2.338097785208   -0.331174717980
 H   -1.810273075564    2.667017785208   -0.517834717980
 H   -5.878243075564    3.542577785208    0.141425282020
 K   -1.178393075564    0.755747785208    1.543095282020
 K   -0.347993075564   -0.725452214792   -2.041044717980
 O    2.859429414408   -0.050219648413    0.896596490533
 C    3.705872149965   -0.957216528647    0.659719148712
 N    5.041638019815   -0.652701233387    0.583951657019
 H    5.322176897772    0.311065019592    0.769213271965
 C    6.109296544693   -1.547191480160    0.362603571229
 O    7.270613694632   -1.207867201944    0.333309128572
 N    5.665538854583   -2.868175489767    0.167712250407
 H    6.405899658361   -3.553453001871    0.021507570129
 C    4.364656199281   -3.246955868354    0.214395716772
 H    4.167821798965   -4.313070007907    0.084386215975
 C    3.355698556780   -2.333759087728    0.419340966766
 H    2.323699983997   -2.658062280100    0.554048788703
