26

 N   -5.172075721646    2.860144043823   -0.020203083119
 C   -3.878185721646    3.249264043823   -0.131473083119
 H   -3.688075721646    4.321234043823   -0.047913083119
 C   -5.608645721646    1.528774043823   -0.149663083119
 O   -6.764195721646    1.179764043823   -0.062653083119
 N   -4.540705721646    0.636944043823   -0.380153083119
 H   -4.817715721646   -0.335575956177   -0.519303083119
 C   -3.212275721646    0.951114043823   -0.519133083119
 O   -2.365835721646    0.044114043823   -0.756013083119
 C   -2.868055721646    2.338784043823   -0.342603083119
 H   -1.845655721646    2.667704043823   -0.529263083119
 H   -5.913625721646    3.543264043823    0.129996916881
 K   -1.213775721646    0.756434043823    1.531666916881
 K   -0.383375721646   -0.724765956177   -2.052473083119
 O    2.919378939114   -0.051253585419    0.915314736145
 C    3.765821674671   -0.958250465653    0.678437394324
 N    5.101775334875   -0.654074913832    0.604641809339
 H    5.382394171515    0.309390856696    0.791339682772
 C    6.169418745404   -1.548653290270    0.383577160957
 O    7.330878285655   -1.209665984385    0.356081784838
 N    5.725479629829   -2.869273627443    0.186645053854
 H    6.465800460304   -3.554620484958    0.040563057156
 C    4.424421007040   -3.247692290175    0.231314728824
 H    4.227406845022   -4.313595303238    0.099854481194
 C    3.415504337012   -2.334407464645    0.436069265761
 H    2.383239696786   -2.658534631004    0.569152340073
