26

 N   -5.313598894521    2.862878360064   -0.065849020264
 C   -4.019708894521    3.251998360064   -0.177119020264
 H   -3.829598894521    4.323968360064   -0.093559020264
 C   -5.750168894521    1.531508360064   -0.195309020264
 O   -6.905718894521    1.182498360064   -0.108299020264
 N   -4.682228894521    0.639678360064   -0.425799020264
 H   -4.959238894521   -0.332841639936   -0.564949020264
 C   -3.353798894521    0.953848360064   -0.564779020264
 O   -2.507358894521    0.046848360064   -0.801659020264
 C   -3.009578894521    2.341518360064   -0.388249020264
 H   -1.987178894521    2.670438360064   -0.574909020264
 H   -6.055148894521    3.545998360064    0.084350979736
 K   -1.355298894521    0.759168360064    1.486020979736
 K   -0.524898894521   -0.722031639936   -2.098119020264
 O    3.159184449394   -0.055400051665    0.990255242001
 C    4.005627184952   -0.962396931899    0.753377900180
 N    5.342258353391   -0.659507291365    0.686927000157
 H    5.623158835246    0.302824487238    0.878973311199
 C    6.409842173897   -1.554416774777    0.466917216074
 O    7.571811950400   -1.216703201459    0.446122173639
 N    5.965250066602   -2.873661385506    0.262384130010
 H    6.705420473404   -3.559267694816    0.116758052578
 C    4.663558490327   -3.250711895969    0.299553430714
 H    4.465890785724   -4.315813376426    0.162688808239
 C    3.654796747487   -2.337097278773    0.503598811517
 H    2.621558810533   -2.660551693162    0.630628018992
