26

 N   -5.384356599372    2.864239548350   -0.088635260288
 C   -4.090466599372    3.253359548350   -0.199905260288
 H   -3.900356599372    4.325329548350   -0.116345260288
 C   -5.820926599372    1.532869548350   -0.218095260288
 O   -6.976476599372    1.183859548350   -0.131085260288
 N   -4.752986599372    0.641039548350   -0.448585260288
 H   -5.029996599372   -0.331480451650   -0.587735260288
 C   -3.424556599372    0.955209548350   -0.587565260288
 O   -2.578116599372    0.048209548350   -0.824445260288
 C   -3.080336599372    2.342879548350   -0.411035260288
 H   -2.057936599372    2.671799548350   -0.597695260288
 H   -6.125906599372    3.547359548350    0.061564739712
 K   -1.426056599372    0.760529548350    1.463234739712
 K   -0.595656599372   -0.720670451650   -2.120905260288
 O    3.279091086120   -0.057479254622    1.027762223478
 C    4.125533821677   -0.964476134856    0.790884881657
 N    5.462464877395   -0.662188577741    0.727810941139
 H    5.743486292118    0.299613977353    0.922315768535
 C    6.530019555425   -1.557251809296    0.508285718589
 O    7.692213278107   -1.220133736546    0.490571066910
 N    6.085139261667   -2.875852677035    0.300257970627
 H    6.825239692724   -3.561578893846    0.154840968776
 C    4.783168558164   -3.252263078707    0.333978896379
 H    4.585208841385   -4.316988003390    0.194628994003
 C    3.774479275686   -2.338495847336    0.537698847018
 H    2.740803212056   -2.661631881119    0.661943409271
