26

 N   -5.419734603995    2.864918756884   -0.100020045355
 C   -4.125844603995    3.254038756884   -0.211290045355
 H   -3.935734603995    4.326008756884   -0.127730045355
 C   -5.856304603995    1.533548756884   -0.229480045355
 O   -7.011854603995    1.184538756884   -0.142470045355
 N   -4.788364603995    0.641718756884   -0.459970045355
 H   -5.065374603995   -0.330801243116   -0.599120045355
 C   -3.459934603995    0.955888756884   -0.598950045355
 O   -2.613494603995    0.048888756884   -0.835830045355
 C   -3.115714603995    2.343558756884   -0.422420045355
 H   -2.093314603995    2.672478756884   -0.609080045355
 H   -6.161284603995    3.548038756884    0.050179954645
 K   -1.461434603995    0.761208756884    1.451849954645
 K   -0.631034603995   -0.719991243116   -2.132290045355
 O    3.339045252286   -0.058520241710    1.046524049161
 C    4.185487987843   -0.965517121944    0.809646707340
 N    5.522560430956   -0.663521081683    0.748194201816
 H    5.803637993346    0.298025614140    0.943879341960
 C    6.590100725721   -1.558658473248    0.528901539660
 O    7.752399589685   -1.221828536392    0.512665857764
 N    6.145084758654   -2.876947739890    0.319195873043
 H    6.885151408899   -3.562731667833    0.173879135293
 C    4.842982697108   -3.253048319391    0.351261111514
 H    4.644884669993   -4.317590644815    0.210717812016
 C    3.834328481143   -2.339207591010    0.554824948591
 H    2.800444153055   -2.662188726109    0.677732208775
