26

 N   -5.525865580049    2.866951173149   -0.134143599011
 C   -4.231975580049    3.256071173149   -0.245413599011
 H   -4.041865580049    4.328041173149   -0.161853599011
 C   -5.962435580049    1.535581173149   -0.263603599011
 O   -7.117985580049    1.186571173149   -0.176593599011
 N   -4.894495580049    0.643751173149   -0.494093599011
 H   -5.171505580049   -0.328768826851   -0.633243599011
 C   -3.566065580049    0.957921173149   -0.633073599011
 O   -2.719625580049    0.050921173149   -0.869953599011
 C   -3.221845580049    2.345591173149   -0.456543599011
 H   -2.199445580049    2.674511173149   -0.643203599011
 H   -6.267415580049    3.550071173149    0.016056400989
 K   -1.567565580049    0.763241173149    1.417726400989
 K   -0.737165580049   -0.717958826851   -2.166413599011
 O    3.518910788598   -0.061648412309    1.102840327756
 C    4.365353524155   -0.968645292543    0.865962985935
 N    5.702819270336   -0.667487885203    0.809126987667
 H    5.984049877150    0.293324097632    1.008172203212
 C    6.770317224847   -1.562837626171    0.590496109560
 O    7.932906963364   -1.226835913153    0.578471067151
 N    6.324924564919   -2.880230786654    0.376013226104
 H    7.064894387576   -3.566179518718    0.230981521167
 C    5.022457974213   -3.255440445715    0.403364568717
 H    4.823972901755   -4.319456489804    0.259423108632
 C    4.013904576060   -2.341389676967    0.606484423050
 H    2.979434750021   -2.663922574253    0.725583210972
