26

 N   -5.596617290364    2.868302033625   -0.156868873626
 C   -4.302727290364    3.257422033625   -0.268138873626
 H   -4.112617290364    4.329392033625   -0.184578873626
 C   -6.033187290364    1.536932033625   -0.286328873626
 O   -7.188737290364    1.187922033625   -0.199318873626
 N   -4.965247290364    0.645102033625   -0.516818873626
 H   -5.242257290364   -0.327417966375   -0.655968873626
 C   -3.636817290364    0.959272033625   -0.655798873626
 O   -2.790377290364    0.052272033625   -0.892678873626
 C   -3.292597290364    2.346942033625   -0.479268873626
 H   -2.270197290364    2.675862033625   -0.665928873626
 H   -6.338167290364    3.551422033625   -0.006668873626
 K   -1.638317290364    0.764592033625    1.395001126374
 K   -0.807917290364   -0.716607966375   -2.189138873626
 O    3.638823419861   -0.063737943076    1.140408274642
 C    4.485266155418   -0.970734823310    0.903530932821
 N    5.822970854822   -0.670108270315    0.849581421918
 H    6.104292023437    0.290239637712    1.050727175136
 C    6.890441291141   -1.565591688620    0.631364058894
 O    8.053206518807   -1.230113732565    0.621971549603
 N    6.444820320311   -2.882417841285    0.413894286015
 H    7.184729113807   -3.568469986759    0.269040470407
 C    5.142132931841   -3.257063825808    0.438298349229
 H    4.943410935384   -4.320746003092    0.292231912794
 C    4.133643305756   -2.342881140496    0.641140977772
 H    3.098813013462   -2.665128347347    0.757857797151
