26

 N   -5.667367392995    2.869649850026   -0.179576747765
 C   -4.373477392995    3.258769850026   -0.290846747765
 H   -4.183367392995    4.330739850026   -0.207286747765
 C   -6.103937392995    1.538279850026   -0.309036747765
 O   -7.259487392995    1.189269850026   -0.222026747765
 N   -5.035997392995    0.646449850026   -0.539526747765
 H   -5.313007392995   -0.326070149974   -0.678676747765
 C   -3.707567392995    0.960619850026   -0.678506747765
 O   -2.861127392995    0.053619850026   -0.915386747765
 C   -3.363347392995    2.348289850026   -0.501976747765
 H   -2.340947392995    2.677209850026   -0.688636747765
 H   -6.408917392995    3.552769850026   -0.029376747765
 K   -1.709067392995    0.765939850026    1.372293252235
 K   -0.878667392995   -0.715260149974   -2.211846747765
 O    3.758737658807   -0.065830517919    1.177993622004
 C    4.605180394364   -0.972827398153    0.941116280183
 N    5.943107479841   -0.672710590149    0.889913229487
 H    6.224511150545    0.287192401704    1.093057362422
 C    7.010550986149   -1.568321847865    0.672089130056
 O    8.173478628882   -1.233346462695    0.665201314852
 N    6.564717938792   -2.884603700008    0.451777424278
 H    7.304568315385   -3.570754505958    0.307092633616
 C    5.261825556519   -3.258708620556    0.473377256203
 H    5.062881758606   -4.322069691189    0.325288739657
 C    4.253397134443   -2.344399997789    0.675956376260
 H    3.218227878252   -2.666371493687    0.790406273450
