26

 N   -5.702741891188    2.870322672078   -0.190924549508
 C   -4.408851891188    3.259442672078   -0.302194549508
 H   -4.218741891188    4.331412672078   -0.218634549508
 C   -6.139311891188    1.538952672078   -0.320384549508
 O   -7.294861891188    1.189942672078   -0.233374549508
 N   -5.071371891188    0.647122672078   -0.550874549508
 H   -5.348381891188   -0.325397327922   -0.690024549508
 C   -3.742941891188    0.961292672078   -0.689854549508
 O   -2.896501891188    0.054292672078   -0.926734549508
 C   -3.398721891188    2.348962672078   -0.513324549508
 H   -2.376321891188    2.677882672078   -0.699984549508
 H   -6.444291891188    3.553442672078   -0.040724549508
 K   -1.744441891188    0.766612672078    1.360945450492
 K   -0.914041891188   -0.714587327922   -2.223194549508
 O    3.818695331403   -0.066877891488    1.196792431011
 C    4.665138066960   -0.973874771722    0.959915089190
 N    6.003170613663   -0.674005289442    0.910035890518
 H    6.284612774582    0.285682074637    1.114143194854
 C    7.070600878934   -1.569678393880    0.692401285799
 O    8.233605219971   -1.234946729658    0.686720740400
 N    6.624667403707   -2.885696209478    0.470719728601
 H    7.364489500738   -3.571894663779    0.326116329751
 C    5.321677984613   -3.259538676200    0.490967886655
 H    5.122628538211   -4.322743769328    0.341904618767
 C    4.313279247307   -2.345169202452    0.693420083674
 H    3.277948002565   -2.667006447971    0.806777100030
