26

 N   -5.738116044784    2.870994797964   -0.202268454287
 C   -4.444226044784    3.260114797964   -0.313538454287
 H   -4.254116044784    4.332084797964   -0.229978454287
 C   -6.174686044784    1.539624797964   -0.331728454287
 O   -7.330236044784    1.190614797964   -0.244718454287
 N   -5.106746044784    0.647794797964   -0.562218454287
 H   -5.383756044784   -0.324725202036   -0.701368454287
 C   -3.778316044784    0.961964797964   -0.701198454287
 O   -2.931876044784    0.054964797964   -0.938078454287
 C   -3.434096044784    2.349634797964   -0.524668454287
 H   -2.411696044784    2.678554797964   -0.711328454287
 H   -6.479666044784    3.554114797964   -0.052068454287
 K   -1.779816044784    0.767284797964    1.349601545713
 K   -0.949416044784   -0.713915202036   -2.234538454287
 O    3.878653348596   -0.067925961224    1.215595136982
 C    4.725096084153   -0.974922841458    0.978717795161
 N    6.063230505144   -0.675295840635    0.930131082605
 H    6.344709442355    0.284180270835    1.135178681531
 C    7.130647679753   -1.571029467972    0.712681441063
 O    8.293725904265   -1.236536673745    0.708179532968
 N    6.684617284478   -2.886788453117    0.489662501060
 H    7.424411695777   -3.573033484539    0.345138514264
 C    5.381534241615   -3.260373648817    0.508591026046
 H    5.182382443646   -4.323425708396    0.358576060158
 C    4.373164600730   -2.345944673883    0.710919365982
 H    3.337676083786   -2.667650001176    0.823209284361
