26

 N   -5.844236600818    2.873007195096   -0.236278120980
 C   -4.550346600818    3.262127195096   -0.347548120980
 H   -4.360236600818    4.334097195096   -0.263988120980
 C   -6.280806600818    1.541637195096   -0.365738120980
 O   -7.436356600818    1.192627195096   -0.278728120980
 N   -5.212866600818    0.649807195096   -0.596228120980
 H   -5.489876600818   -0.322712804904   -0.735378120980
 C   -3.884436600818    0.963977195096   -0.735208120980
 O   -3.037996600818    0.056977195096   -0.972088120980
 C   -3.540216600818    2.351647195096   -0.558678120980
 H   -2.517816600818    2.680567195096   -0.745338120980
 H   -6.585786600818    3.556127195096   -0.086078120980
 K   -1.885936600818    0.769297195096    1.315591879020
 K   -1.055536600818   -0.711902804904   -2.268548120980
 O    4.058529304928   -0.071074150956    1.272025302541
 C    4.904972040485   -0.978071031190    1.035147960720
 N    6.243392148857   -0.679143728944    0.990261232420
 H    6.524971982602    0.279723622944    1.198000292567
 C    7.310770956385   -1.575051387725    0.773340853991
 O    8.474055234587   -1.241247450334    0.772212859345
 N    6.864469275502   -2.890063685867    0.546493474730
 H    7.604184014818   -3.576442368340    0.402196539262
 C    5.561124304434   -3.262906736378    0.561644388100
 H    5.361683843702   -4.325516601446    0.408904781964
 C    4.552838585770   -2.348306925704    0.763618485088
 H    3.516904647570   -2.669629974854    0.872853030317
