26

 N   -5.914982197614    2.874345660467   -0.258934089412
 C   -4.621092197614    3.263465660467   -0.370204089412
 H   -4.430982197614    4.335435660467   -0.286644089412
 C   -6.351552197614    1.542975660467   -0.388394089412
 O   -7.507102197614    1.193965660467   -0.301384089412
 N   -5.283612197614    0.651145660467   -0.618884089412
 H   -5.560622197614   -0.321374339533   -0.758034089412
 C   -3.955182197614    0.965315660467   -0.757864089412
 O   -3.108742197614    0.058315660467   -0.994744089412
 C   -3.610962197614    2.352985660467   -0.581334089412
 H   -2.588562197614    2.681905660467   -0.767994089412
 H   -6.656532197614    3.557465660467   -0.108734089412
 K   -1.956682197614    0.770635660467    1.292935910588
 K   -1.126282197614   -0.710564339533   -2.291204089412
 O    4.178448049709   -0.073176076828    1.309662555610
 C    5.024890785266   -0.980172957062    1.072785213789
 N    6.363486174354   -0.681690242063    1.030227135118
 H    6.645126176930    0.276790927956    1.239659878662
 C    7.430840156215   -1.577708018516    0.813639683758
 O    8.594249972846   -1.244341462290    0.814635000870
 N    6.984372425390   -2.892246014733    0.584382862850
 H    7.724036705169   -3.578709052557    0.440228612753
 C    5.680867233695   -3.264617680833    0.597156335761
 H    5.481248396206   -4.326946120210    0.442701757938
 C    4.672634810627   -2.349909969700    0.798907727997
 H    3.636424188354   -2.670988899434    0.906218861011
