26

 N   -6.127213161120    2.878347478281   -0.326829182347
 C   -4.833323161120    3.267467478281   -0.438099182347
 H   -4.643213161120    4.339437478281   -0.354539182347
 C   -6.563783161120    1.546977478281   -0.456289182347
 O   -7.719333161120    1.197967478281   -0.369279182347
 N   -5.495843161120    0.655147478281   -0.686779182347
 H   -5.772853161120   -0.317372521719   -0.825929182347
 C   -4.167413161120    0.969317478281   -0.825759182347
 O   -3.320973161120    0.062317478281   -1.062639182347
 C   -3.823193161120    2.356987478281   -0.649229182347
 H   -2.800793161120    2.685907478281   -0.835889182347
 H   -6.868763161120    3.561467478281   -0.176629182347
 K   -2.168913161120    0.774637478281    1.225040817653
 K   -1.338513161120   -0.706562521719   -2.359099182347
 O    4.538210110936   -0.079495432744    1.422647127176
 C    5.384652846493   -0.986492312978    1.185769785355
 N    6.723711941938   -0.689248229711    1.149611373205
 H    7.005504033379    0.268159484386    1.363697815067
 C    7.790994994590   -1.585570976195    0.933938189758
 O    8.954733313824   -1.253421724013    0.940768381584
 N    7.344089589782   -2.898788113661    0.698059879782
 H    8.083613934445   -3.585483934076    0.554296912450
 C    6.040162505766   -3.269847174117    0.704299857754
 H    5.840066581461   -4.331389755237    0.545131457797
 C    5.032078453469   -2.354841406439    0.905440178480
 H    3.995121972401   -2.675235398850    1.007463499817
