26

 N   -6.197955147633    2.879677285557   -0.349439098407
 C   -4.904065147633    3.268797285557   -0.460709098407
 H   -4.713955147633    4.340767285557   -0.377149098407
 C   -6.634525147633    1.548307285557   -0.478899098407
 O   -7.790075147633    1.199297285557   -0.391889098407
 N   -5.566585147633    0.656477285557   -0.709389098407
 H   -5.843595147633   -0.316042714443   -0.848539098407
 C   -4.238155147633    0.970647285557   -0.848369098407
 O   -3.391715147633    0.063647285557   -1.085249098407
 C   -3.893935147633    2.358317285557   -0.671839098407
 H   -2.871535147633    2.687237285557   -0.858499098407
 H   -6.939505147633    3.562797285557   -0.199239098407
 K   -2.239655147633    0.775967285557    1.202430901593
 K   -1.409255147633   -0.705232714443   -2.381709098407
 O    4.658132466000   -0.081606016711    1.460330432617
 C    5.504575201558   -0.988602896945    1.223453090795
 N    6.843770877710   -0.691742666108    1.189252488117
 H    7.125605607133    0.265333094036    1.404762332522
 C    7.911031439226   -1.588159396448    0.973858797871
 O    9.074865416702   -1.256387025397    0.982473876468
 N    7.463997612295   -2.900967360898    0.735954879963
 H    8.203478777948   -3.587734674851    0.592311366257
 C    6.159946864187   -3.271619842076    0.740196183409
 H    5.959708837673   -4.332918365267    0.579585513118
 C    5.151908759615   -2.356522445934    0.941149847981
 H    4.114728362786   -2.676702783942    1.041554965807
