26

 N   -6.268696416377    2.881005204340   -0.372039218649
 C   -4.974806416377    3.270125204340   -0.483309218649
 H   -4.784696416377    4.342095204340   -0.399749218649
 C   -6.705266416377    1.549635204340   -0.501499218649
 O   -7.860816416377    1.200625204340   -0.414489218649
 N   -5.637326416377    0.657805204340   -0.731989218649
 H   -5.914336416377   -0.314714795660   -0.871139218649
 C   -4.308896416377    0.971975204340   -0.870969218649
 O   -3.462456416377    0.064975204340   -1.107849218649
 C   -3.964676416377    2.359645204340   -0.694439218649
 H   -2.942276416377    2.688565204340   -0.881099218649
 H   -7.010246416377    3.564125204340   -0.221839218649
 K   -2.310396416377    0.777295204340    1.179830781351
 K   -1.479996416377   -0.703904795660   -2.404309218649
 O    4.778055538833   -0.083718489172    1.498023533875
 C    5.624498274391   -0.990715369406    1.261146192054
 N    6.963822699976   -0.694225693274    1.228824498442
 H    7.245696634181    0.262529921933    1.445700260999
 C    8.031061327482   -1.590732922472    1.013698948226
 O    9.194984974914   -1.259324218850    1.024026920522
 N    7.583906666733   -2.903145959137    0.773851082564
 H    8.323346230577   -3.589982008790    0.630322098665
 C    6.279739620245   -3.273406032126    0.776174292373
 H    6.079366915682   -4.334468725846    0.614179387320
 C    5.271745857524   -2.358220503582    0.976948948789
 H    4.234352447042   -2.678193982901    1.075800840623
