26

 N   -6.304066800343    2.881668485809   -0.383335788234
 C   -5.010176800343    3.270788485809   -0.494605788234
 H   -4.820066800343    4.342758485809   -0.411045788234
 C   -6.740636800343    1.550298485809   -0.512795788234
 O   -7.896186800343    1.201288485809   -0.425785788234
 N   -5.672696800343    0.658468485809   -0.743285788234
 H   -5.949706800343   -0.314051514191   -0.882435788234
 C   -4.344266800343    0.972638485809   -0.882265788234
 O   -3.497826800343    0.065638485809   -1.119145788234
 C   -4.000046800343    2.360308485809   -0.705735788234
 H   -2.977646800343    2.689228485809   -0.892395788234
 H   -7.045616800343    3.564788485809   -0.233135788234
 K   -2.345766800343    0.777958485809    1.168534211766
 K   -1.515366800343   -0.703241514191   -2.415605788234
 O    4.838017325657   -0.084775403325    1.516873575041
 C    5.684460061214   -0.991772283559    1.279996233220
 N    7.023846113758   -0.695463105990    1.248585877615
 H    7.305738458570    0.261136673905    1.466124116648
 C    8.091073979239   -1.592014337136    1.033590353310
 O    9.255040367071   -1.260782722015    1.044749118526
 N    7.643861561172   -2.904235027693    0.792799613247
 H    8.383280889162   -3.591104460150    0.649326141652
 C    6.339638946332   -3.274303987391    0.794192490992
 H    6.139201517048   -4.335251728290    0.631526151434
 C    5.331666777740   -2.359075642112    0.994880366409
 H    4.294170710779   -2.678948147266    1.092978804655
