26

 N   -6.339437026616    2.882331330673   -0.394630122587
 C   -5.045547026616    3.271451330673   -0.505900122587
 H   -4.855437026616    4.343421330673   -0.422340122587
 C   -6.776007026616    1.550961330673   -0.524090122587
 O   -7.931557026616    1.201951330673   -0.437080122587
 N   -5.708067026616    0.659131330673   -0.754580122587
 H   -5.985077026616   -0.313388669327   -0.893730122587
 C   -4.379637026616    0.973301330673   -0.893560122587
 O   -3.533197026616    0.066301330673   -1.130440122587
 C   -4.035417026616    2.360971330673   -0.717030122587
 H   -3.013017026616    2.689891330673   -0.903690122587
 H   -7.080987026616    3.565451330673   -0.244430122587
 K   -2.381137026616    0.778621330673    1.157239877413
 K   -1.550737026616   -0.702578669327   -2.426900122587
 O    4.897979270172   -0.085832754082    1.535725851438
 C    5.744422005729   -0.992829634316    1.298848509617
 N    7.083867946898   -0.696697875029    1.268331486057
 H    7.365777954822    0.259748797439    1.486519085515
 C    8.151085184829   -1.593292306455    1.053463398621
 O    9.315092991250   -1.262234722863    1.065436528417
 N    7.703816690528   -2.905323948949    0.811748419354
 H    8.443216146020   -3.592226132249    0.668329338698
 C    6.399540138270   -3.275205075841    0.812229353796
 H    6.199039642907   -4.336039775484    0.648904825964
 C    5.391589192166   -2.359934715794    1.012832190936
 H    4.353992917280   -2.679707835737    1.110192009165
