26

 N   -6.410177031768    2.883655754380   -0.417212345038
 C   -5.116287031768    3.272775754380   -0.528482345038
 H   -4.926177031768    4.344745754380   -0.444922345038
 C   -6.846747031768    1.552285754380   -0.546672345038
 O   -8.002297031768    1.203275754380   -0.459662345038
 N   -5.778807031768    0.660455754380   -0.777162345038
 H   -6.055817031768   -0.312064245620   -0.916312345038
 C   -4.450377031768    0.974625754380   -0.916142345038
 O   -3.603937031768    0.067625754380   -1.153022345038
 C   -4.106157031768    2.362295754380   -0.739612345038
 H   -3.083757031768    2.691215754380   -0.926272345038
 H   -7.151727031768    3.566775754380   -0.267012345038
 K   -2.451877031768    0.779945754380    1.134657654962
 K   -1.621477031768   -0.701254245620   -2.449482345038
 O    5.017903606598   -0.087948721618    1.573436850488
 C    5.864346342155   -0.994945601852    1.336559508667
 N    7.203907106239   -0.699159740125    1.307777218480
 H    7.485850328150    0.256988624830    1.527225714058
 C    8.271103485786   -1.595838252339    1.093156540037
 O    9.435190371407   -1.265119865030    1.106711019836
 N    7.823727626056   -2.907501367608    0.849646827148
 H    8.563088388641   -3.594467226833    0.706333297045
 C    6.519347842146   -3.277016346381    0.848356908875
 H    6.318725955138   -4.337630517496    0.683754209982
 C    5.511438262929   -2.361664274742    1.048794692418
 H    4.473648586278   -2.681243253077    1.144720057901
