26

 N   -6.480916480076    2.884978559543   -0.439786380335
 C   -5.187026480076    3.274098559543   -0.551056380335
 H   -4.996916480076    4.346068559543   -0.467496380335
 C   -6.917486480076    1.553608559543   -0.569246380335
 O   -8.073036480076    1.204598559543   -0.482236380335
 N   -5.849546480076    0.661778559543   -0.799736380335
 H   -6.126556480076   -0.310741440457   -0.938886380335
 C   -4.521116480076    0.975948559543   -0.938716380335
 O   -3.674676480076    0.068948559543   -1.175596380335
 C   -4.176896480076    2.363618559543   -0.762186380335
 H   -3.154496480076    2.692538559543   -0.948846380335
 H   -7.222466480076    3.568098559543   -0.289586380335
 K   -2.522616480076    0.781268559543    1.112083619665
 K   -1.692216480076   -0.699931440457   -2.472056380335
 O    5.137828499866   -0.090066307699    1.611156036692
 C    5.984271235424   -0.997063187932    1.374278694871
 N    7.323940620943   -0.701611784770    1.347165178473
 H    7.605914441237    0.254248377667    1.567826531988
 C    8.391116659690   -1.598371419458    1.132782431221
 O    9.555277934980   -1.267980888904    1.147858085001
 N    7.943639420155   -2.909678249424    0.887546247345
 H    8.682962832530   -3.596705460749    0.744334167850
 C    6.639162208711   -3.278839255504    0.884552835811
 H    6.438424884639   -4.339240015479    0.718720495868
 C    5.631292617411   -2.363408424107    1.084831940718
 H    4.593318374252   -2.682799211257    1.179377208828
