26

 N   -6.587024702819    2.886959903475   -0.473633074156
 C   -5.293134702819    3.276079903475   -0.584903074156
 H   -5.103024702819    4.348049903475   -0.501343074156
 C   -7.023594702819    1.555589903475   -0.603093074156
 O   -8.179144702819    1.206579903475   -0.516083074156
 N   -5.955654702819    0.663759903475   -0.833583074156
 H   -6.232664702819   -0.308760096525   -0.972733074156
 C   -4.627224702819    0.977929903475   -0.972563074156
 O   -3.780784702819    0.070929903475   -1.209443074156
 C   -4.283004702819    2.365599903475   -0.796033074156
 H   -3.260604702819    2.694519903475   -0.982693074156
 H   -7.328574702819    3.570079903475   -0.323433074156
 K   -2.628724702819    0.783249903475    1.078236925844
 K   -1.798324702819   -0.697950096525   -2.505903074156
 O    5.317716789490   -0.093245550631    1.667749175122
 C    6.164159525047   -1.000242430865    1.430871833301
 N    7.503981181005   -0.705272450034    1.406145783578
 H    7.785996470074    0.250173278389    1.628542175562
 C    8.571127648785   -1.602148551454    1.192103317215
 O    9.735392480875   -1.272229733241    1.209355188098
 N    8.123508614686   -2.912942634082    0.944397157906
 H    8.862778371962   -3.600057786101    0.801330073142
 C    6.818895221578   -3.281594242296    0.938966652769
 H    6.617995028943   -4.341687518572    0.771374981752
 C    5.811083170627   -2.366050467046    1.139018909838
 H    4.772847400717   -2.685169572802    1.231589393901
