26

 N   -6.693131900496    2.888938027294   -0.507463775340
 C   -5.399241900496    3.278058027294   -0.618733775340
 H   -5.209131900496    4.350028027294   -0.535173775340
 C   -7.129701900496    1.557568027294   -0.636923775340
 O   -8.285251900496    1.208558027294   -0.549913775340
 N   -6.061761900496    0.665738027294   -0.867413775340
 H   -6.338771900496   -0.306781972706   -1.006563775340
 C   -4.733331900496    0.979908027294   -1.006393775340
 O   -3.886891900496    0.072908027294   -1.243273775340
 C   -4.389111900496    2.367578027294   -0.829863775340
 H   -3.366711900496    2.696498027294   -1.016523775340
 H   -7.434681900496    3.572058027294   -0.357263775340
 K   -2.734831900496    0.785228027294    1.044406224660
 K   -1.904431900496   -0.695971972706   -2.539733775340
 O    5.497606104179   -0.096428013677    1.724358306189
 C    6.344048839737   -1.003424893911    1.487480964368
 N    7.684011152567   -0.708913517649    1.465013513531
 H    7.966063170520    0.246137858061    1.689051116004
 C    8.751129136027   -1.605900240687    1.251292830233
 O    9.915488823455   -1.276430553907    1.270603363277
 N    8.303379480672   -2.916205978192    1.001250056911
 H    9.042598241311   -3.603404504119    0.858319980365
 C    6.998640731253   -3.284372454286    0.993514053687
 H    6.797588937210   -4.344172499433    0.824257885651
 C    5.990883473415   -2.368721544747    1.193351890783
 H    4.952403032948   -2.687580986541    1.284053838099
