26

 N   -6.834606762837    2.891570899798   -0.552548657334
 C   -5.540716762837    3.280690899798   -0.663818657334
 H   -5.350606762837    4.352660899798   -0.580258657334
 C   -7.271176762837    1.560200899798   -0.682008657334
 O   -8.426726762837    1.211190899798   -0.594998657334
 N   -6.203236762837    0.668370899798   -0.912498657334
 H   -6.480246762837   -0.304149100202   -1.051648657334
 C   -4.874806762837    0.982540899798   -1.051478657334
 O   -4.028366762837    0.075540899798   -1.288358657334
 C   -4.530586762837    2.370210899798   -0.874948657334
 H   -3.508186762837    2.699130899798   -1.061608657334
 H   -7.576156762837    3.574690899798   -0.402348657334
 K   -2.876306762837    0.787860899798    0.999321342666
 K   -2.045906762837   -0.693339100202   -2.584818657334
 O    5.737459924993   -0.100675923660    1.799859867196
 C    6.583902660551   -1.007672803893    1.562982525375
 N    7.924036456536   -0.713740069556    1.543343445908
 H    8.206131037000    0.240814331172    1.769436042254
 C    8.991118071001   -1.610865926066    1.330025542176
 O   10.155592273623   -1.281962624210    1.351913949102
 N    8.543209671530   -2.920555632565    1.077056756603
 H    9.282364244648   -3.607858811885    0.934298031350
 C    7.238318709396   -3.288110162003    1.066433718890
 H    7.037080466650   -4.347539786822    0.895092977345
 C    6.230630559207   -2.372324698169    1.266003296230
 H    5.191847484405   -2.690855339526    1.354364860961
