26

 N   -6.869975252479    2.892228342122   -0.563816099936
 C   -5.576085252479    3.281348342122   -0.675086099936
 H   -5.385975252479    4.353318342122   -0.591526099936
 C   -7.306545252479    1.560858342122   -0.693276099936
 O   -8.462095252479    1.211848342122   -0.606266099936
 N   -6.238605252479    0.669028342122   -0.923766099936
 H   -6.515615252479   -0.303491657878   -1.062916099936
 C   -4.910175252479    0.983198342122   -1.062746099936
 O   -4.063735252479    0.076198342122   -1.299626099936
 C   -4.565955252479    2.370868342122   -0.886216099936
 H   -3.543555252479    2.699788342122   -1.072876099936
 H   -7.611525252479    3.575348342122   -0.413616099936
 K   -2.911675252479    0.788518342122    0.988053900064
 K   -2.081275252479   -0.692681657878   -2.596086099936
 O    5.797423606140   -0.101738676957    1.818739035345
 C    6.643866341698   -1.008735557191    1.581861693524
 N    7.984040394414   -0.714941970822    1.562899258726
 H    8.266144591343    0.239493018459    1.789483441123
 C    9.051113192880   -1.612101212753    1.349677684318
 O   10.215614087477   -1.283334061573    1.372182787913
 N    8.603167612624   -2.921642802450    1.096008904053
 H    9.342306776085   -3.608971059215    0.953291135744
 C    7.298241022063   -3.289050202234    1.084695198507
 H    7.096958734508   -4.348390679227    0.912855725392
 C    6.290569485958   -2.373232483456    1.284200640277
 H    5.251714630389   -2.691683865438    1.372002226105
