26

 N   -7.152920391221    2.897477752551   -0.653906932155
 C   -5.859030391221    3.286597752551   -0.765176932155
 H   -5.668920391221    4.358567752551   -0.681616932155
 C   -7.589490391221    1.566107752551   -0.783366932155
 O   -8.745040391221    1.217097752551   -0.696356932155
 N   -6.521550391221    0.674277752551   -1.013856932155
 H   -6.798560391221   -0.298242247449   -1.153006932155
 C   -5.193120391221    0.988447752551   -1.152836932155
 O   -4.346680391221    0.081447752551   -1.389716932155
 C   -4.848900391221    2.376117752551   -0.976306932155
 H   -3.826500391221    2.705037752551   -1.162966932155
 H   -7.894470391221    3.580597752551   -0.503706932155
 K   -3.194620391221    0.793767752551    0.897963067845
 K   -2.364220391221   -0.687432247449   -2.686176932155
 O    6.277135833708   -0.110250831501    1.969821089128
 C    7.123578569265   -1.017247711735    1.732943747307
 N    8.464042048229   -0.724495219079    1.719001849657
 H    8.746210766406    0.229047517716    1.949232998695
 C    9.531048042936   -1.621903377858    1.506494658681
 O   10.695738488549   -1.294154296851    1.533575254986
 N    9.082836201048   -2.930337036852    1.247632199251
 H    9.821860379685   -3.617851853509    1.105217884073
 C    7.777654744131   -3.296643951347    1.231194041993
 H    7.576052415820   -4.355316571873    1.055653750983
 C    6.770107459642   -2.380586125739    1.430224114239
 H    5.730727489607   -2.698442194750    1.513869851626
