26

 N   -7.188288225426    2.898132753302   -0.665162683944
 C   -5.894398225426    3.287252753302   -0.776432683944
 H   -5.704288225426    4.359222753302   -0.692872683944
 C   -7.624858225426    1.566762753302   -0.794622683944
 O   -8.780408225426    1.217752753302   -0.707612683944
 N   -6.556918225426    0.674932753302   -1.025112683944
 H   -6.833928225426   -0.297587246698   -1.164262683944
 C   -5.228488225426    0.989102753302   -1.164092683944
 O   -4.382048225426    0.082102753302   -1.400972683944
 C   -4.884268225426    2.376772753302   -0.987562683944
 H   -3.861868225426    2.705692753302   -1.174222683944
 H   -7.929838225426    3.581252753302   -0.514962683944
 K   -3.229988225426    0.794422753302    0.886707316056
 K   -2.399588225426   -0.686777246698   -2.697432683944
 O    6.337100170292   -0.111316026372    1.988711948090
 C    7.183542905849   -1.018312906605    1.751834606269
 N    8.524038901595   -0.725682172987    1.738475114097
 H    8.806214324855    0.227756345116    1.969129273185
 C    9.591036987957   -1.623119344841    1.526050754205
 O   10.755748452477   -1.295489262500    1.553662100813
 N    9.142795355510   -2.931423458245    1.266585816513
 H    9.881806121300   -3.618959972803    1.124206653379
 C    7.837585415916   -3.297601704666    1.249553214488
 H    7.635946733130   -4.356196120053    1.073583571321
 C    6.830052656958   -2.381515936173    1.448528198822
 H    5.790612625170   -2.699302121098    1.531691731018
