26

 N   -7.259023713649    2.899442031922   -0.687670775756
 C   -5.965133713649    3.288562031922   -0.798940775756
 H   -5.775023713649    4.360532031922   -0.715380775756
 C   -7.695593713649    1.568072031922   -0.817130775756
 O   -8.851143713649    1.219062031922   -0.730120775756
 N   -6.627653713649    0.676242031922   -1.047620775756
 H   -6.904663713649   -0.296277968078   -1.186770775756
 C   -5.299223713649    0.990412031922   -1.186600775756
 O   -4.452783713649    0.083412031922   -1.423480775756
 C   -4.955003713649    2.378082031922   -1.010070775756
 H   -3.932603713649    2.707002031922   -1.196730775756
 H   -8.000573713649    3.582562031922   -0.537470775756
 K   -3.300723713649    0.795732031922    0.864199224244
 K   -2.470323713649   -0.685467968078   -2.719940775756
 O    6.457029023646   -0.113447138995    2.026497077778
 C    7.303471759203   -1.020444019229    1.789619735957
 N    8.644030618298   -0.728051645292    1.777397548476
 H    8.926218667468    0.225182929779    2.008877716513
 C    9.711013166236   -1.625545555547    1.565134914343
 O   10.875765094224   -1.298148388823    1.593782678127
 N    9.262714017533   -2.933596084030    1.304493481897
 H   10.001698546677   -3.621175003268    1.162182932727
 C    7.957449107266   -3.299522467406    1.286300074366
 H    7.755739895322   -4.357963727830    1.109491980525
 C    6.949944780380   -2.383382079245    1.485167518877
 H    5.910387973846   -2.701031301750    1.567389350099
