26

 N   -7.294391371701    2.900096319932   -0.698923169030
 C   -6.000501371701    3.289216319932   -0.810193169030
 H   -5.810391371701    4.361186319932   -0.726633169030
 C   -7.730961371701    1.568726319932   -0.828383169030
 O   -8.886511371701    1.219716319932   -0.741373169030
 N   -6.663021371701    0.676896319932   -1.058873169030
 H   -6.940031371701   -0.295623680068   -1.198023169030
 C   -5.334591371701    0.991066319932   -1.197853169030
 O   -4.488151371701    0.084066319932   -1.434733169030
 C   -4.990371371701    2.378736319932   -1.021323169030
 H   -3.967971371701    2.707656319932   -1.207983169030
 H   -8.035941371701    3.583216319932   -0.548723169030
 K   -3.336091371701    0.796386319932    0.852946830970
 K   -2.505691371701   -0.684813680068   -2.731193169030
 O    6.516993536382   -0.114513046606    2.045391295255
 C    7.363436271939   -1.021509926840    1.808513953434
 N    8.704025521228   -0.729234224832    1.796847094012
 H    8.986219510670    0.223900562430    2.028730573447
 C    9.771000436219   -1.626755879218    1.584663416303
 O   10.935771842290   -1.299472700362    1.613817238291
 N    9.322673519472   -2.934682291968    1.323447523504
 H   10.061645216318   -3.622281932917    1.181170463067
 C    8.017382080089   -3.300485404359    1.304687317239
 H    7.815638652332   -4.358851670970    1.127469809483
 C    7.009891668358   -2.384318320503    1.503502268214
 H    5.970278088717   -2.701900428567    1.585264250590
