9

 C   -1.810421412153   -1.225439125114    0.000000000000
 H   -2.789348412153   -0.733651125114    0.000000000000
 H   -1.703275412153   -1.865248125114    0.888272000000
 H   -1.703275412153   -1.865248125114   -0.888272000000
 C   -0.725794412153   -0.179855125114    0.000000000000
 O   -0.886898412153    1.029695874886    0.000000000000
 O    0.516491587847   -0.756863125114    0.000000000000
 H    1.151027587847   -0.018300125114    0.000000000000
NA    1.802695922888    0.740203916473    0.000000000000
