9

 C   -1.828469288895   -1.246445803995    0.000000000000
 H   -2.807396288895   -0.754657803995    0.000000000000
 H   -1.721323288895   -1.886254803995    0.888272000000
 H   -1.721323288895   -1.886254803995   -0.888272000000
 C   -0.743842288895   -0.200861803995    0.000000000000
 O   -0.904946288895    1.008689196005    0.000000000000
 O    0.498443711105   -0.777869803995    0.000000000000
 H    1.132979711105   -0.039306803995    0.000000000000
NA    1.849814879650    0.795047641751    0.000000000000
