9

 C   -1.864565042380   -1.288459161757    0.000000000000
 H   -2.843492042380   -0.796671161757    0.000000000000
 H   -1.757419042380   -1.928268161757    0.888272000000
 H   -1.757419042380   -1.928268161757   -0.888272000000
 C   -0.779938042380   -0.242875161757    0.000000000000
 O   -0.941042042380    0.966675838243    0.000000000000
 O    0.462347957620   -0.819883161757    0.000000000000
 H    1.096883957620   -0.081320161757    0.000000000000
NA    1.944052793174    0.904735092307    0.000000000000
