9

 C   -1.900660795864   -1.330472519519    0.000000000000
 H   -2.879587795864   -0.838684519519    0.000000000000
 H   -1.793514795864   -1.970281519519    0.888272000000
 H   -1.793514795864   -1.970281519519   -0.888272000000
 C   -0.816033795864   -0.284888519519    0.000000000000
 O   -0.977137795864    0.924662480481    0.000000000000
 O    0.426252204136   -0.861896519519    0.000000000000
 H    1.060788204136   -0.123333519519    0.000000000000
NA    2.038290706698    1.014422542863    0.000000000000
