9

 C   -3.434730318953   -3.116040224395    0.000000000000
 H   -4.413657318953   -2.624252224395    0.000000000000
 H   -3.327584318953   -3.755849224395    0.888272000000
 H   -3.327584318953   -3.755849224395   -0.888272000000
 C   -2.350103318953   -2.070456224395    0.000000000000
 O   -2.511207318953   -0.860905224395    0.000000000000
 O   -1.107817318953   -2.647464224395    0.000000000000
 H   -0.473281318953   -1.908901224395    0.000000000000
NA    6.043402031457    5.676139191482    0.000000000000
