9

 C   -2.171378946997   -1.645572702732    0.000000000000
 H   -3.150305946997   -1.153784702732    0.000000000000
 H   -2.064232946997   -2.285381702732    0.888272000000
 H   -2.064232946997   -2.285381702732   -0.888272000000
 C   -1.086751946997   -0.599988702732    0.000000000000
 O   -1.247855946997    0.609562297268    0.000000000000
 O    0.155534053003   -1.176996702732    0.000000000000
 H    0.790070053003   -0.438433702732    0.000000000000
NA    2.745075058126    1.837078422031    0.000000000000
