9

 C   -2.207474700482   -1.687586060494    0.000000000000
 H   -3.186401700482   -1.195798060494    0.000000000000
 H   -2.100328700482   -2.327395060494    0.888272000000
 H   -2.100328700482   -2.327395060494   -0.888272000000
 C   -1.122847700482   -0.642002060494    0.000000000000
 O   -1.283951700482    0.567548939506    0.000000000000
 O    0.119438299518   -1.219010060494    0.000000000000
 H    0.753974299518   -0.480447060494    0.000000000000
NA    2.839312971649    1.946765872586    0.000000000000
