9

 C   -2.279666207451   -1.771612776018    0.000000000000
 H   -3.258593207451   -1.279824776018    0.000000000000
 H   -2.172520207451   -2.411421776018    0.888272000000
 H   -2.172520207451   -2.411421776018   -0.888272000000
 C   -1.195039207451   -0.726028776018    0.000000000000
 O   -1.356143207451    0.483522223982    0.000000000000
 O    0.047246792549   -1.303036776018    0.000000000000
 H    0.681782792549   -0.564473776018    0.000000000000
NA    3.027788798697    2.166140773698    0.000000000000
