9

 C   -2.297714084193   -1.792619454899    0.000000000000
 H   -3.276641084193   -1.300831454899    0.000000000000
 H   -2.190568084193   -2.432428454899    0.888272000000
 H   -2.190568084193   -2.432428454899   -0.888272000000
 C   -1.213087084193   -0.747035454899    0.000000000000
 O   -1.374191084193    0.462515545101    0.000000000000
 O    0.029198915807   -1.324043454899    0.000000000000
 H    0.663734915807   -0.585480454899    0.000000000000
NA    3.074907755459    2.220984498976    0.000000000000
