9

 C   -2.351857714420   -1.855639491541    0.000000000000
 H   -3.330784714420   -1.363851491541    0.000000000000
 H   -2.244711714420   -2.495448491541    0.888272000000
 H   -2.244711714420   -2.495448491541   -0.888272000000
 C   -1.267230714420   -0.810055491541    0.000000000000
 O   -1.428334714420    0.399495508459    0.000000000000
 O   -0.024944714420   -1.387063491541    0.000000000000
 H    0.609591285580   -0.648500491541    0.000000000000
NA    3.216264625744    2.385515674809    0.000000000000
