9

 C   -2.387953467904   -1.897652849303    0.000000000000
 H   -3.366880467904   -1.405864849303    0.000000000000
 H   -2.280807467904   -2.537461849303    0.888272000000
 H   -2.280807467904   -2.537461849303   -0.888272000000
 C   -1.303326467904   -0.852068849303    0.000000000000
 O   -1.464430467904    0.357482150697    0.000000000000
 O   -0.061040467904   -1.429076849303    0.000000000000
 H    0.573495532096   -0.690513849303    0.000000000000
NA    3.310502539268    2.495203125365    0.000000000000
