9

 C   -2.424049221389   -1.939666207065    0.000000000000
 H   -3.402976221389   -1.447878207065    0.000000000000
 H   -2.316903221389   -2.579475207065    0.888272000000
 H   -2.316903221389   -2.579475207065   -0.888272000000
 C   -1.339422221389   -0.894082207065    0.000000000000
 O   -1.500526221389    0.315468792935    0.000000000000
 O   -0.097136221389   -1.471090207065    0.000000000000
 H    0.537399778611   -0.732527207065    0.000000000000
NA    3.404740452792    2.604890575921    0.000000000000
