9

 C   -2.442097098131   -1.960672885946    0.000000000000
 H   -3.421024098131   -1.468884885946    0.000000000000
 H   -2.334951098131   -2.600481885946    0.888272000000
 H   -2.334951098131   -2.600481885946   -0.888272000000
 C   -1.357470098131   -0.915088885946    0.000000000000
 O   -1.518574098131    0.294462114054    0.000000000000
 O   -0.115184098131   -1.492096885946    0.000000000000
 H    0.519351901869   -0.753533885946    0.000000000000
NA    3.451859409554    2.659734301199    0.000000000000
