9

 C   -2.460144974873   -1.981679564827    0.000000000000
 H   -3.439071974873   -1.489891564827    0.000000000000
 H   -2.352998974873   -2.621488564827    0.888272000000
 H   -2.352998974873   -2.621488564827   -0.888272000000
 C   -1.375517974873   -0.936095564827    0.000000000000
 O   -1.536621974873    0.273455435173    0.000000000000
 O   -0.133231974873   -1.513103564827    0.000000000000
 H    0.501304025127   -0.774540564827    0.000000000000
NA    3.498978366316    2.714578026477    0.000000000000
