9

 C   -2.514288605100   -2.044699601469    0.000000000000
 H   -3.493215605100   -1.552911601469    0.000000000000
 H   -2.407142605100   -2.684508601469    0.888272000000
 H   -2.407142605100   -2.684508601469   -0.888272000000
 C   -1.429661605100   -0.999115601469    0.000000000000
 O   -1.590765605100    0.210435398531    0.000000000000
 O   -0.187375605100   -1.576123601469    0.000000000000
 H    0.447160394900   -0.837560601469    0.000000000000
NA    3.640335236601    2.879109202310    0.000000000000
