9

 C   -2.532336481842   -2.065706280350    0.000000000000
 H   -3.511263481842   -1.573918280350    0.000000000000
 H   -2.425190481842   -2.705515280350    0.888272000000
 H   -2.425190481842   -2.705515280350   -0.888272000000
 C   -1.447709481842   -1.020122280350    0.000000000000
 O   -1.608813481842    0.189428719650    0.000000000000
 O   -0.205423481842   -1.597130280350    0.000000000000
 H    0.429112518158   -0.858567280350    0.000000000000
NA    3.687454193363    2.933952927588    0.000000000000
