9

 C   -2.658671619038   -2.212753032517    0.000000000000
 H   -3.637598619038   -1.720965032517    0.000000000000
 H   -2.551525619038   -2.852562032517    0.888272000000
 H   -2.551525619038   -2.852562032517   -0.888272000000
 C   -1.574044619038   -1.167169032517    0.000000000000
 O   -1.735148619038    0.042381967483    0.000000000000
 O   -0.331758619038   -1.744177032517    0.000000000000
 H    0.302777380962   -1.005614032517    0.000000000000
NA    4.017286890696    3.317859004533    0.000000000000
