9

 C   -2.712815249264   -2.275773069159    0.000000000000
 H   -3.691742249264   -1.783985069159    0.000000000000
 H   -2.605669249264   -2.915582069159    0.888272000000
 H   -2.605669249264   -2.915582069159   -0.888272000000
 C   -1.628188249264   -1.230189069159    0.000000000000
 O   -1.789292249264   -0.020638069159    0.000000000000
 O   -0.385902249264   -1.807197069159    0.000000000000
 H    0.248633750736   -1.068634069159    0.000000000000
NA    4.158643760982    3.482390180367    0.000000000000
