9

 C   -2.730863126006   -2.296779748040    0.000000000000
 H   -3.709790126006   -1.804991748040    0.000000000000
 H   -2.623717126006   -2.936588748040    0.888272000000
 H   -2.623717126006   -2.936588748040   -0.888272000000
 C   -1.646236126006   -1.251195748040    0.000000000000
 O   -1.807340126006   -0.041644748040    0.000000000000
 O   -0.403950126006   -1.828203748040    0.000000000000
 H    0.230585873994   -1.089640748040    0.000000000000
NA    4.205762717744    3.537233905645    0.000000000000
