9

 C   -2.748911002749   -2.317786426921    0.000000000000
 H   -3.727838002749   -1.825998426921    0.000000000000
 H   -2.641765002749   -2.957595426921    0.888272000000
 H   -2.641765002749   -2.957595426921   -0.888272000000
 C   -1.664284002749   -1.272202426921    0.000000000000
 O   -1.825388002749   -0.062651426921    0.000000000000
 O   -0.421998002749   -1.849210426921    0.000000000000
 H    0.212537997251   -1.110647426921    0.000000000000
NA    4.252881674506    3.592077630923    0.000000000000
