9

 C   -2.803054632975   -2.380806463564    0.000000000000
 H   -3.781981632975   -1.889018463564    0.000000000000
 H   -2.695908632975   -3.020615463564    0.888272000000
 H   -2.695908632975   -3.020615463564   -0.888272000000
 C   -1.718427632975   -1.335222463564    0.000000000000
 O   -1.879531632975   -0.125671463564    0.000000000000
 O   -0.476141632975   -1.912230463564    0.000000000000
 H    0.158394367025   -1.173667463564    0.000000000000
NA    4.394238544791    3.756608806756    0.000000000000
