9

 C   -2.965485523655   -2.569866573492    0.000000000000
 H   -3.944412523655   -2.078078573492    0.000000000000
 H   -2.858339523655   -3.209675573492    0.888272000000
 H   -2.858339523655   -3.209675573492   -0.888272000000
 C   -1.880858523655   -1.524282573492    0.000000000000
 O   -2.041962523655   -0.314731573492    0.000000000000
 O   -0.638572523655   -2.101290573492    0.000000000000
 H   -0.004036523655   -1.362727573492    0.000000000000
NA    4.818309155648    4.250202334257    0.000000000000
