9

 C   -3.037677030624   -2.653893289016    0.000000000000
 H   -4.016604030624   -2.162105289016    0.000000000000
 H   -2.930531030624   -3.293702289016    0.888272000000
 H   -2.930531030624   -3.293702289016   -0.888272000000
 C   -1.953050030624   -1.608309289016    0.000000000000
 O   -2.114154030624   -0.398758289016    0.000000000000
 O   -0.710764030624   -2.185317289016    0.000000000000
 H   -0.076228030624   -1.446754289016    0.000000000000
NA    5.006784982696    4.469577235369    0.000000000000
