9

 C   -3.055724907367   -2.674899967896    0.000000000000
 H   -4.034651907367   -2.183111967896    0.000000000000
 H   -2.948578907367   -3.314708967896    0.888272000000
 H   -2.948578907367   -3.314708967896   -0.888272000000
 C   -1.971097907367   -1.629315967896    0.000000000000
 O   -2.132201907367   -0.419764967896    0.000000000000
 O   -0.728811907367   -2.206323967896    0.000000000000
 H   -0.094275907367   -1.467760967896    0.000000000000
NA    5.053903939457    4.524420960646    0.000000000000
