9

 C   -3.073772784109   -2.695906646777    0.000000000000
 H   -4.052699784109   -2.204118646777    0.000000000000
 H   -2.966626784109   -3.335715646777    0.888272000000
 H   -2.966626784109   -3.335715646777   -0.888272000000
 C   -1.989145784109   -1.650322646777    0.000000000000
 O   -2.150249784109   -0.440771646777    0.000000000000
 O   -0.746859784109   -2.227330646777    0.000000000000
 H   -0.112323784109   -1.488767646777    0.000000000000
NA    5.101022896219    4.579264685924    0.000000000000
