9

 C   -3.091820660851   -2.716913325658    0.000000000000
 H   -4.070747660851   -2.225125325658    0.000000000000
 H   -2.984674660851   -3.356722325658    0.888272000000
 H   -2.984674660851   -3.356722325658   -0.888272000000
 C   -2.007193660851   -1.671329325658    0.000000000000
 O   -2.168297660851   -0.461778325658    0.000000000000
 O   -0.764907660851   -2.248337325658    0.000000000000
 H   -0.130371660851   -1.509774325658    0.000000000000
NA    5.148141852981    4.634108411202    0.000000000000
