9

 C   -3.109868537593   -2.737920004539    0.000000000000
 H   -4.088795537593   -2.246132004539    0.000000000000
 H   -3.002722537593   -3.377729004539    0.888272000000
 H   -3.002722537593   -3.377729004539   -0.888272000000
 C   -2.025241537593   -1.692336004539    0.000000000000
 O   -2.186345537593   -0.482785004539    0.000000000000
 O   -0.782955537593   -2.269344004539    0.000000000000
 H   -0.148419537593   -1.530781004539    0.000000000000
NA    5.195260809743    4.688952136480    0.000000000000
