9

 C   -3.145964291078   -2.779933362301    0.000000000000
 H   -4.124891291078   -2.288145362301    0.000000000000
 H   -3.038818291078   -3.419742362301    0.888272000000
 H   -3.038818291078   -3.419742362301   -0.888272000000
 C   -2.061337291078   -1.734349362301    0.000000000000
 O   -2.222441291078   -0.524798362301    0.000000000000
 O   -0.819051291078   -2.311357362301    0.000000000000
 H   -0.184515291078   -1.572794362301    0.000000000000
NA    5.289498723267    4.798639587036    0.000000000000
