9

 C   -3.182060044562   -2.821946720063    0.000000000000
 H   -4.160987044562   -2.330158720063    0.000000000000
 H   -3.074914044562   -3.461755720063    0.888272000000
 H   -3.074914044562   -3.461755720063   -0.888272000000
 C   -2.097433044562   -1.776362720063    0.000000000000
 O   -2.258537044562   -0.566811720063    0.000000000000
 O   -0.855147044562   -2.353370720063    0.000000000000
 H   -0.220611044562   -1.614807720063    0.000000000000
NA    5.383736636791    4.908327037592    0.000000000000
