9

 C   -3.218155798047   -2.863960077824    0.000000000000
 H   -4.197082798047   -2.372172077824    0.000000000000
 H   -3.111009798047   -3.503769077824    0.888272000000
 H   -3.111009798047   -3.503769077824   -0.888272000000
 C   -2.133528798047   -1.818376077824    0.000000000000
 O   -2.294632798047   -0.608825077824    0.000000000000
 O   -0.891242798047   -2.395384077824    0.000000000000
 H   -0.256706798047   -1.656821077824    0.000000000000
NA    5.477974550314    5.018014488147    0.000000000000
