9

 C   -3.326443058500   -2.990000151110    0.000000000000
 H   -4.305370058500   -2.498212151110    0.000000000000
 H   -3.219297058500   -3.629809151110    0.888272000000
 H   -3.219297058500   -3.629809151110   -0.888272000000
 C   -2.241816058500   -1.944416151110    0.000000000000
 O   -2.402920058500   -0.734865151110    0.000000000000
 O   -0.999530058500   -2.521424151110    0.000000000000
 H   -0.364994058500   -1.782861151110    0.000000000000
NA    5.760688290886    5.347076839815    0.000000000000
