9

 C   -3.344490935242   -3.011006829991    0.000000000000
 H   -4.323417935242   -2.519218829991    0.000000000000
 H   -3.237344935242   -3.650815829991    0.888272000000
 H   -3.237344935242   -3.650815829991   -0.888272000000
 C   -2.259863935242   -1.965422829991    0.000000000000
 O   -2.420967935242   -0.755871829991    0.000000000000
 O   -1.017577935242   -2.542430829991    0.000000000000
 H   -0.383041935242   -1.803867829991    0.000000000000
NA    5.807807247647    5.401920565092    0.000000000000
