9

 C   -3.362538811984   -3.032013508872    0.000000000000
 H   -4.341465811984   -2.540225508872    0.000000000000
 H   -3.255392811984   -3.671822508872    0.888272000000
 H   -3.255392811984   -3.671822508872   -0.888272000000
 C   -2.277911811984   -1.986429508872    0.000000000000
 O   -2.439015811984   -0.776878508872    0.000000000000
 O   -1.035625811984   -2.563437508872    0.000000000000
 H   -0.401089811984   -1.824874508872    0.000000000000
NA    5.854926204409    5.456764290370    0.000000000000
