9

 C   -3.398634565469   -3.074026866633    0.000000000000
 H   -4.377561565469   -2.582238866633    0.000000000000
 H   -3.291488565469   -3.713835866633    0.888272000000
 H   -3.291488565469   -3.713835866633   -0.888272000000
 C   -2.314007565469   -2.028442866633    0.000000000000
 O   -2.475111565469   -0.818891866633    0.000000000000
 O   -1.071721565469   -2.605450866633    0.000000000000
 H   -0.437185565469   -1.866887866633    0.000000000000
NA    5.949164117933    5.566451740926    0.000000000000
