25

 C    2.047090083670    1.180659016310    0.704890912693
 H    2.140560083670    2.123109016310    1.250000912693
 C    2.047090083670    1.180659016310   -0.704889087307
 H    2.140560083670    2.123109016310   -1.249999087307
 C    2.017120083670   -0.039870983690    1.409800912693
 H    2.086770083670   -0.041270983690    2.500300912693
 C    2.017120083670   -0.039870983690   -1.409799087307
 H    2.086770083670   -0.041270983690   -2.500299087307
 C    1.986850083670   -1.260460983690    0.704910912693
 H    2.033010083670   -2.206220983690    1.250300912693
 C    1.986850083670   -1.260460983690   -0.704909087307
 H    2.033010083670   -2.206220983690   -1.250299087307
 K   -0.545179916330    0.010779016310    0.000000912693
 C   -1.774915684066   -1.186043671667   -0.704887492515
 H   -1.868385540424   -2.128497008483   -1.250000009686
 C   -1.774916978157   -1.186045618031    0.704883755517
 H   -1.868387176520   -2.128500512275    1.249993521376
 C   -1.744944279887    0.034495234167   -1.409800155880
 H   -1.814595815619    0.035891100345   -2.500307179254
 C   -1.744946790189    0.034495283789    1.409799844119
 H   -1.814598945172    0.035891162208    2.500306827925
 C   -1.714680877313    1.255078329904   -0.704918479562
 H   -1.760832757695    2.200836025321   -1.250307683614
 C   -1.714682093342    1.255080335298    0.704914747609
 H   -1.760834250888    2.200839603293    1.250301201194
