25

 C    2.087094525553    1.179868234192    0.704890948340
 H    2.180564525553    2.122318234192    1.250000948340
 C    2.087094525553    1.179868234192   -0.704889051660
 H    2.180564525553    2.122318234192   -1.249999051660
 C    2.057124525553   -0.040661765808    1.409800948340
 H    2.126774525553   -0.042061765808    2.500300948340
 C    2.057124525553   -0.040661765808   -1.409799051660
 H    2.126774525553   -0.042061765808   -2.500299051660
 C    2.026854525553   -1.261251765808    0.704910948340
 H    2.073014525553   -2.207011765808    1.250300948340
 C    2.026854525553   -1.261251765808   -0.704909051660
 H    2.073014525553   -2.207011765808   -1.250299051660
 K   -0.505175474447    0.009988234192    0.000000948340
 C   -1.834891710409   -1.184858100229   -0.704887545916
 H   -1.928361104588   -2.127311522403   -1.249999994760
 C   -1.834893004499   -1.184860046594    0.704883702116
 H   -1.928362757739   -2.127315024842    1.249993399063
 C   -1.804920306229    0.035680805604   -1.409800209281
 H   -1.874571824842    0.037076671444   -2.500307233748
 C   -1.804922816531    0.035680855226    1.409799790718
 H   -1.874574988633    0.037076733984    2.500306773430
 C   -1.774656903655    1.256263901341   -0.704918532963
 H   -1.820809265885    2.202021532891   -1.250307806991
 C   -1.774658119685    1.256265906735    0.704914694208
 H   -1.820810776260    2.202025110320    1.250301217259
