25

 C    2.167103409264    1.178286669728    0.704891019632
 H    2.260573409264    2.120736669728    1.250001019632
 C    2.167103409264    1.178286669728   -0.704888980368
 H    2.260573409264    2.120736669728   -1.249998980368
 C    2.137133409264   -0.042243330272    1.409801019632
 H    2.206783409264   -0.043643330272    2.500301019632
 C    2.137133409264   -0.042243330272   -1.409798980368
 H    2.206783409264   -0.043643330272   -2.500298980368
 C    2.106863409264   -1.262833330272    0.704911019632
 H    2.153023409264   -2.208593330272    1.250301019632
 C    2.106863409264   -1.262833330272   -0.704908980368
 H    2.153023409264   -2.208593330272   -1.250298980368
 K   -0.425166590736    0.008406669728    0.000001019632
 C   -1.954843763149   -1.182486957582   -0.704887652720
 H   -2.048312301233   -2.124940537864   -1.249999975001
 C   -1.954845057240   -1.182488903946    0.704883595312
 H   -2.048313985975   -2.124944037796    1.249993164611
 C   -1.924872358970    0.038051948252   -1.409800316085
 H   -1.994523845874    0.039447813465   -2.500307342579
 C   -1.924874869272    0.038051997874    1.409799683914
 H   -1.994527073082    0.039447877258    2.500306664600
 C   -1.894608956396    1.258635043989   -0.704918639767
 H   -1.940762211156    2.204392557237   -1.250308043412
 C   -1.894610172425    1.258637049383    0.704914587404
 H   -1.940763753358    2.204396133659    1.250301239126
