25

 C    2.287116734709    1.175914322543    0.704891126564
 H    2.380586734709    2.118364322543    1.250001126564
 C    2.287116734709    1.175914322543   -0.704888873436
 H    2.380586734709    2.118364322543   -1.249998873436
 C    2.257146734709   -0.044615677457    1.409801126564
 H    2.326796734709   -0.046015677457    2.500301126564
 C    2.257146734709   -0.044615677457   -1.409798873436
 H    2.326796734709   -0.046015677457   -2.500298873436
 C    2.226876734709   -1.265205677457    0.704911126564
 H    2.273036734709   -2.210965677457    1.250301126564
 C    2.226876734709   -1.265205677457   -0.704908873436
 H    2.273036734709   -2.210965677457   -1.250298873436
 K   -0.305153265291    0.006034322543    0.000001126564
 C   -2.134771842381   -1.178930244100   -0.704887812932
 H   -2.228239243500   -2.121384034361   -1.249999967127
 C   -2.134773136472   -1.178932190465    0.704883435100
 H   -2.228240970198   -2.121387530965    1.249992834873
 C   -2.104800438202    0.041608661733   -1.409800476296
 H   -2.174451882993    0.043004526114   -2.500307505481
 C   -2.104802948504    0.041608711355    1.409799523702
 H   -2.174455194427    0.043004591572    2.500306501698
 C   -2.074537035628    1.262191757470   -0.704918799978
 H   -2.120691475739    2.207949113603   -1.250308375767
 C   -2.074538251657    1.262193762865    0.704914427192
 H   -2.120693060210    2.207952688687    1.250301249800
