25

 C    5.567480946239    1.111070096179    0.704894048596
 H    5.660950946239    2.053520096179    1.250004048596
 C    5.567480946239    1.111070096179   -0.704885951404
 H    5.660950946239    2.053520096179   -1.249995951404
 C    5.537510946239   -0.109459903821    1.409804048596
 H    5.607160946239   -0.110859903821    2.500304048596
 C    5.537510946239   -0.109459903821   -1.409795951404
 H    5.607160946239   -0.110859903821   -2.500295951404
 C    5.507240946239   -1.330049903821    0.704914048596
 H    5.553400946239   -2.275809903821    1.250304048596
 C    5.507240946239   -1.330049903821   -0.704905951404
 H    5.553400946239   -2.275809903821   -1.250295951404
 K    2.975210946239   -0.058809903821    0.000004048596
 C   -7.052806025352   -1.081713478901   -0.704892192821
 H   -7.146263376673   -2.024169125123   -1.250002861299
 C   -7.052807319442   -1.081715425266    0.704879055212
 H   -7.146265474224   -2.024172592314    1.249986956536
 C   -7.022834621172    0.138825426932   -1.409804856185
 H   -7.092485693706    0.140221283954   -2.500311909156
 C   -7.022837131474    0.138825476554    1.409795143814
 H   -7.092489749655    0.140221364130    2.500302098023
 C   -6.992571218598    1.359408522669   -0.704923179867
 H   -7.038736136204    2.305164489957   -1.250314277266
 C   -6.992572434628    1.359410528063    0.704910047303
 H   -7.038738094296    2.305168053212    1.250298380414
