25

 C    2.567147826982    1.170378844033    0.704891376052
 H    2.660617826982    2.112828844033    1.250001376052
 C    2.567147826982    1.170378844033   -0.704888623948
 H    2.660617826982    2.112828844033   -1.249998623948
 C    2.537177826982   -0.050151155967    1.409801376052
 H    2.606827826982   -0.051551155967    2.500301376052
 C    2.537177826982   -0.050151155967   -1.409798623948
 H    2.606827826982   -0.051551155967   -2.500298623948
 C    2.506907826982   -1.270741155967    0.704911376052
 H    2.553067826982   -2.216501155967    1.250301376052
 C    2.506907826982   -1.270741155967   -0.704908623948
 H    2.553067826982   -2.216501155967   -1.250298623948
 K   -0.025122173018    0.000498844033    0.000001376052
 C   -2.554604027687   -1.170631247720   -0.704888186778
 H   -2.648069299921   -2.113085431147   -1.250000026246
 C   -2.554605321777   -1.170633194085    0.704883061254
 H   -2.648071105178   -2.113088921520    1.249992143602
 C   -2.524632623508    0.049907658113   -1.409800850143
 H   -2.594283989445    0.051303520935   -2.500307884366
 C   -2.524635133809    0.049907707736    1.409799149856
 H   -2.594287458587    0.051303589511    2.500306122813
 C   -2.494369220934    1.270490753850   -0.704919173825
 H   -2.540525880531    2.216247815791   -1.250309071939
 C   -2.494370436963    1.270492759245    0.704914053346
 H   -2.540527544147    2.216251388370    1.250301195927
