25

 C    2.767170035479    1.166424929721    0.704891554246
 H    2.860640035479    2.108874929721    1.250001554246
 C    2.767170035479    1.166424929721   -0.704888445754
 H    2.860640035479    2.108874929721   -1.249998445754
 C    2.737200035479   -0.054105070279    1.409801554246
 H    2.806850035479   -0.055505070279    2.500301554246
 C    2.737200035479   -0.054105070279   -1.409798445754
 H    2.806850035479   -0.055505070279   -2.500298445754
 C    2.706930035479   -1.274695070279    0.704911554246
 H    2.753090035479   -2.220455070279    1.250301554246
 C    2.706930035479   -1.274695070279   -0.704908445754
 H    2.753090035479   -2.220455070279   -1.250298445754
 K    0.174900035479   -0.003455070279    0.000001554246
 C   -2.854484160318   -1.164703394254   -0.704888453823
 H   -2.947948239966   -2.107157797927   -1.250000116983
 C   -2.854485454408   -1.164705340619    0.704882794209
 H   -2.947950089231   -2.107161284809    1.249991698739
 C   -2.824512756139    0.055835511579   -1.409801117188
 H   -2.894164077902    0.057231373528   -2.500308154233
 C   -2.824515266441    0.055835561201    1.409798882811
 H   -2.894167635392    0.057231443850    2.500305852945
 C   -2.794249353565    1.276418607316   -0.704919440870
 H   -2.840407256502    2.222175504449   -1.250309519549
 C   -2.794250569594    1.276420612711    0.704913786301
 H   -2.840408964455    2.222179075624    1.250301108129
