25

 C    2.847178918830    1.164843363803    0.704891625522
 H    2.940648918830    2.107293363803    1.250001625522
 C    2.847178918830    1.164843363803   -0.704888374478
 H    2.940648918830    2.107293363803   -1.249998374478
 C    2.817208918830   -0.055686636197    1.409801625522
 H    2.886858918830   -0.057086636197    2.500301625522
 C    2.817208918830   -0.055686636197   -1.409798374478
 H    2.886858918830   -0.057086636197   -2.500298374478
 C    2.786938918830   -1.276276636197    0.704911625522
 H    2.833098918830   -2.222036636197    1.250301625522
 C    2.786938918830   -1.276276636197   -0.704908374478
 H    2.833098918830   -2.222036636197   -1.250298374478
 K    0.254908918830   -0.005036636197    0.000001625522
 C   -2.974436213418   -1.162332253061   -0.704888560643
 H   -3.067899873979   -2.104786734130   -1.250000161847
 C   -2.974437507508   -1.162334199426    0.704882687389
 H   -3.067901738710   -2.104790219785    1.249991529432
 C   -2.944464809239    0.058206652773   -1.409801224008
 H   -3.014116115479    0.059602514414   -2.500308262045
 C   -2.944467319541    0.058206702395    1.409798775991
 H   -3.014119704015    0.059602585350    2.500305745133
 C   -2.914201406665    1.278789748510   -0.704919547690
 H   -2.960359746524    2.224546587727   -1.250309689822
 C   -2.914202622694    1.278791753904    0.704913679480
 H   -2.960361470057    2.224550158409    1.250301064298
