25

 C    2.887183360497    1.164052580808    0.704891661159
 H    2.980653360497    2.106502580808    1.250001661159
 C    2.887183360497    1.164052580808   -0.704888338841
 H    2.980653360497    2.106502580808   -1.249998338841
 C    2.857213360497   -0.056477419192    1.409801661159
 H    2.926863360497   -0.057877419192    2.500301661159
 C    2.857213360497   -0.056477419192   -1.409798338841
 H    2.926863360497   -0.057877419192   -2.500298338841
 C    2.826943360497   -1.277067419192    0.704911661159
 H    2.873103360497   -2.222827419192    1.250301661159
 C    2.826943360497   -1.277067419192   -0.704908338841
 H    2.873103360497   -2.222827419192   -1.250298338841
 K    0.294913360497   -0.005827419192    0.000001661159
 C   -3.034412239977   -1.161146682500   -0.704888614054
 H   -3.127875701717   -2.103601200287   -1.250000185865
 C   -3.034413534067   -1.161148628864    0.704882633978
 H   -3.127877573785   -2.103604685360    1.249991446377
 C   -3.004440835798    0.059392223334   -1.409801277418
 H   -3.074092134673    0.060788084830   -2.500308315927
 C   -3.004443346099    0.059392272956    1.409798722580
 H   -3.074095737939    0.060788156057    2.500305691252
 C   -2.974177433224    1.279975319071   -0.704919601100
 H   -3.020335980365    2.225732130812   -1.250309773335
 C   -2.974178649253    1.279977324465    0.704913626070
 H   -3.020337711289    2.225735701260    1.250301040770
