25

 C    2.967192243814    1.162471014754    0.704891732433
 H    3.060662243814    2.104921014754    1.250001732433
 C    2.967192243814    1.162471014754   -0.704888267567
 H    3.060662243814    2.104921014754   -1.249998267567
 C    2.937222243814   -0.058058985246    1.409801732433
 H    3.006872243814   -0.059458985246    2.500301732433
 C    2.937222243814   -0.058058985246   -1.409798267567
 H    3.006872243814   -0.059458985246   -2.500298267567
 C    2.906952243814   -1.278648985246    0.704911732433
 H    2.953112243814   -2.224408985246    1.250301732433
 C    2.906952243814   -1.278648985246   -0.704908267567
 H    2.953112243814   -2.224408985246   -1.250298267567
 K    0.374922243814   -0.007408985246    0.000001732433
 C   -3.154364293111   -1.158775541443   -0.704888720876
 H   -3.247827376887   -2.101230129032   -1.250000236810
 C   -3.154365587201   -1.158777487808    0.704882527157
 H   -3.247829262902   -2.101233612999    1.249991283200
 C   -3.124392888931    0.061763364390   -1.409801384240
 H   -3.194044173807    0.063159225610   -2.500308423643
 C   -3.124395399233    0.061763414012    1.409798615759
 H   -3.194047805073    0.063159297390    2.500305583536
 C   -3.094129486357    1.282346460127   -0.704919707922
 H   -3.140288427548    2.228103219636   -1.250309937383
 C   -3.094130702387    1.282348465522    0.704913519248
 H   -3.140290172524    2.228106789639    1.250300990757
