25

 C    3.087205568754    1.160098665524    0.704891839342
 H    3.180675568754    2.102548665524    1.250001839342
 C    3.087205568754    1.160098665524   -0.704888160658
 H    3.180675568754    2.102548665524   -1.249998160658
 C    3.057235568754   -0.060431334476    1.409801839342
 H    3.126885568754   -0.061831334476    2.500301839342
 C    3.057235568754   -0.060431334476   -1.409798160658
 H    3.126885568754   -0.061831334476   -2.500298160658
 C    3.026965568754   -1.281021334476    0.704911839342
 H    3.073125568754   -2.226781334476    1.250301839342
 C    3.026965568754   -1.281021334476   -0.704908160658
 H    3.073125568754   -2.226781334476   -1.250298160658
 K    0.494935568754   -0.009781334476    0.000001839342
 C   -3.334292372848   -1.155218830006   -0.704888881110
 H   -3.427754934233   -2.097673514069   -1.250000319816
 C   -3.334293666939   -1.155220776371    0.704882366923
 H   -3.427756839525   -2.097676996507    1.249991045075
 C   -3.304320968669    0.065320075827   -1.409801544474
 H   -3.373972234194    0.066715936664   -2.500308585113
 C   -3.304323478971    0.065320125449    1.409798455525
 H   -3.373975904160    0.066716009210    2.500305422065
 C   -3.274057566095    1.285903171564   -0.704919868156
 H   -3.320217051909    2.231659858880   -1.250310176711
 C   -3.274058782125    1.285905176958    0.704913359014
 H   -3.320218816307    2.231663428269    1.250300909039
