25

 C    3.247223335280    1.156935532977    0.704891981885
 H    3.340693335280    2.099385532977    1.250001981885
 C    3.247223335280    1.156935532977   -0.704888018115
 H    3.340693335280    2.099385532977   -1.249998018115
 C    3.217253335280   -0.063594467023    1.409801981885
 H    3.286903335280   -0.064994467023    2.500301981885
 C    3.217253335280   -0.063594467023   -1.409798018115
 H    3.286903335280   -0.064994467023   -2.500298018115
 C    3.186983335280   -1.284184467023    0.704911981885
 H    3.233143335280   -2.229944467023    1.250301981885
 C    3.186983335280   -1.284184467023   -0.704908018115
 H    3.233143335280   -2.229944467023   -1.250298018115
 K    0.654953335280   -0.012944467023    0.000001981885
 C   -3.574196479224   -1.150476548331   -0.704889094758
 H   -3.667658416184   -2.092931347709   -1.250000441152
 C   -3.574197773315   -1.150478494695    0.704882153274
 H   -3.667660344519   -2.092934828320    1.249990738324
 C   -3.544225075045    0.070062357503   -1.409801758122
 H   -3.613876317441    0.071458217882   -2.500308800239
 C   -3.544227585347    0.070062407125    1.409798241876
 H   -3.613880033666    0.071458291343    2.500305206939
 C   -3.513961672471    1.290645453240   -0.704920081804
 H   -3.560121809284    2.236402054263   -1.250310484902
 C   -3.513962888501    1.290647458634    0.704913145366
 H   -3.560123596895    2.236405622916    1.250300789243
