25

 C    3.287227776903    1.156144749802    0.704892017521
 H    3.380697776903    2.098594749802    1.250002017521
 C    3.287227776903    1.156144749802   -0.704887982479
 H    3.380697776903    2.098594749802   -1.249997982479
 C    3.257257776903   -0.064385250198    1.409802017521
 H    3.326907776903   -0.065785250198    2.500302017521
 C    3.257257776903   -0.064385250198   -1.409797982479
 H    3.326907776903   -0.065785250198   -2.500297982479
 C    3.226987776903   -1.284975250198    0.704912017521
 H    3.273147776903   -2.230735250198    1.250302017521
 C    3.226987776903   -1.284975250198   -0.704907982479
 H    3.273147776903   -2.230735250198   -1.250297982479
 K    0.694957776903   -0.013735250198    0.000002017521
 C   -3.634172505828   -1.149290977950   -0.704889148170
 H   -3.727634298055   -2.091745804057   -1.250000473168
 C   -3.634173799918   -1.149292924314    0.704882099862
 H   -3.727636231731   -2.091749284244    1.249990663332
 C   -3.604201101648    0.071247927884   -1.409801811535
 H   -3.673852338683    0.072643788158   -2.500308853994
 C   -3.604203611950    0.071247977506    1.409798188464
 H   -3.673856065630    0.072643861830    2.500305153184
 C   -3.573937699074    1.291831023621   -0.704920135217
 H   -3.620097986779    2.237587604642   -1.250310560228
 C   -3.573938915104    1.291833029015    0.704913091953
 H   -3.620099779771    2.237591173125    1.250300757584
