25

 C    3.327232218521    1.155353966614    0.704892053156
 H    3.420702218521    2.097803966614    1.250002053156
 C    3.327232218521    1.155353966614   -0.704887946844
 H    3.420702218521    2.097803966614   -1.249997946844
 C    3.297262218521   -0.065176033386    1.409802053156
 H    3.366912218521   -0.066576033386    2.500302053156
 C    3.297262218521   -0.065176033386   -1.409797946844
 H    3.366912218521   -0.066576033386   -2.500297946844
 C    3.266992218521   -1.285766033386    0.704912053156
 H    3.313152218521   -2.231526033386    1.250302053156
 C    3.266992218521   -1.285766033386   -0.704907946844
 H    3.313152218521   -2.231526033386   -1.250297946844
 K    0.734962218521   -0.014526033386    0.000002053156
 C   -3.694148532435   -1.148105407582   -0.704889201583
 H   -3.787610184087   -2.090560259650   -1.250000505799
 C   -3.694149826525   -1.148107353947    0.704882046449
 H   -3.787612122950   -2.090563739426    1.249990588959
 C   -3.664177128255    0.072433498251   -1.409801864948
 H   -3.733828360083    0.073829358422   -2.500308907740
 C   -3.664179638557    0.072433547873    1.409798135051
 H   -3.733832097444    0.073829432300    2.500305099439
 C   -3.633913725681    1.293016593988   -0.704920188629
 H   -3.680074159943    2.238773155583   -1.250310634924
 C   -3.633914941711    1.293018599382    0.704913038541
 H   -3.680075958161    2.238776723900    1.250300725300
