25

 C    3.367236660137    1.154563183412    0.704892088791
 H    3.460706660137    2.097013183412    1.250002088791
 C    3.367236660137    1.154563183412   -0.704887911209
 H    3.460706660137    2.097013183412   -1.249997911209
 C    3.337266660137   -0.065966816588    1.409802088791
 H    3.406916660137   -0.067366816588    2.500302088791
 C    3.337266660137   -0.065966816588   -1.409797911209
 H    3.406916660137   -0.067366816588   -2.500297911209
 C    3.306996660137   -1.286556816588    0.704912088791
 H    3.353156660137   -2.232316816588    1.250302088791
 C    3.306996660137   -1.286556816588   -0.704907911209
 H    3.353156660137   -2.232316816588   -1.250297911209
 K    0.774966660137   -0.015316816588    0.000002088791
 C   -3.754124559045   -1.146919837228   -0.704889254996
 H   -3.847586074104   -2.089374714522   -1.250000539018
 C   -3.754125853135   -1.146921783593    0.704881993037
 H   -3.847588018007   -2.089378193898    1.249990515180
 C   -3.724153154865    0.073619068605   -1.409801918360
 H   -3.793804381633    0.075014928676   -2.500308961476
 C   -3.724155665167    0.073619118227    1.409798081639
 H   -3.793808129114    0.075015002754    2.500305045703
 C   -3.693889752291    1.294202164342   -0.704920242042
 H   -3.740050328960    2.239958707060   -1.250310709018
 C   -3.693890968321    1.294204169736    0.704912985128
 H   -3.740052132257    2.239962275216    1.250300692418
