25

 C    3.407241101749    1.153772400198    0.704892124426
 H    3.500711101749    2.096222400198    1.250002124426
 C    3.407241101749    1.153772400198   -0.704887875574
 H    3.500711101749    2.096222400198   -1.249997875574
 C    3.377271101749   -0.066757599802    1.409802124426
 H    3.446921101749   -0.068157599802    2.500302124426
 C    3.377271101749   -0.066757599802   -1.409797875574
 H    3.446921101749   -0.068157599802   -2.500297875574
 C    3.347001101749   -1.287347599802    0.704912124426
 H    3.393161101749   -2.233107599802    1.250302124426
 C    3.347001101749   -1.287347599802   -0.704907875574
 H    3.393161101749   -2.233107599802   -1.250297875574
 K    0.814971101749   -0.016107599802    0.000002124426
 C   -3.814100585658   -1.145734266887   -0.704889308409
 H   -3.907561967937   -2.088189168702   -1.250000572802
 C   -3.814101879748   -1.145736213252    0.704881939624
 H   -3.907563916740   -2.088192647689    1.249990441969
 C   -3.784129181478    0.074804638946   -1.409801971773
 H   -3.853780403328    0.076200498920   -2.500309015203
 C   -3.784131691780    0.074804688569    1.409798028226
 H   -3.853784160645    0.076200573192    2.500304991976
 C   -3.753865778904    1.295387734683   -0.704920295455
 H   -3.800026494004    2.241144259051   -1.250310782535
 C   -3.753866994934    1.295389740078    0.704912931715
 H   -3.800028302237    2.241147827052    1.250300658962
