25

 C    3.447245543359    1.152981616971    0.704892160061
 H    3.540715543359    2.095431616971    1.250002160061
 C    3.447245543359    1.152981616971   -0.704887839939
 H    3.540715543359    2.095431616971   -1.249997839939
 C    3.417275543359   -0.067548383029    1.409802160061
 H    3.486925543359   -0.068948383029    2.500302160061
 C    3.417275543359   -0.067548383029   -1.409797839939
 H    3.486925543359   -0.068948383029   -2.500297839939
 C    3.387005543359   -1.288138383029    0.704912160061
 H    3.433165543359   -2.233898383029    1.250302160061
 C    3.387005543359   -1.288138383029   -0.704907839939
 H    3.433165543359   -2.233898383029   -1.250297839939
 K    0.854975543359   -0.016898383029    0.000002160061
 C   -3.874076612274   -1.144548696558   -0.704889361822
 H   -3.967537865430   -2.087003622218   -1.250000607126
 C   -3.874077906364   -1.144550642923    0.704881886211
 H   -3.967539818998   -2.087007100828    1.249990369304
 C   -3.844105208095    0.075990209276   -1.409802025186
 H   -3.913756425161    0.077386069155   -2.500309068922
 C   -3.844107718396    0.075990258898    1.409797974813
 H   -3.913760192045    0.077386143616    2.500304938257
 C   -3.813841805521    1.296573305013   -0.704920348868
 H   -3.860002655238    2.242329811536   -1.250310855498
 C   -3.813843021550    1.296575310407    0.704912878302
 H   -3.860004468272    2.242333379384    1.250300624957
