25

 C    3.487249984965    1.152190833733    0.704892195695
 H    3.580719984965    2.094640833733    1.250002195695
 C    3.487249984965    1.152190833733   -0.704887804305
 H    3.580719984965    2.094640833733   -1.249997804305
 C    3.457279984965   -0.068339166267    1.409802195695
 H    3.526929984965   -0.069739166267    2.500302195695
 C    3.457279984965   -0.068339166267   -1.409797804305
 H    3.526929984965   -0.069739166267   -2.500297804305
 C    3.427009984965   -1.288929166267    0.704912195695
 H    3.473169984965   -2.234689166267    1.250302195695
 C    3.427009984965   -1.288929166267   -0.704907804305
 H    3.473169984965   -2.234689166267   -1.250297804305
 K    0.894979984965   -0.017689166267    0.000002195695
 C   -3.934052638893   -1.143363126241   -0.704889415235
 H   -4.027513766433   -2.085818075099   -1.250000641968
 C   -3.934053932983   -1.143365072605    0.704881832797
 H   -4.027515724636   -2.085821553341    1.249990297161
 C   -3.904081234714    0.077175779593   -1.409802078599
 H   -3.973732447127    0.078571639380   -2.500309122632
 C   -3.904083745016    0.077175829215    1.409797921399
 H   -3.973736223317    0.078571714025    2.500304884546
 C   -3.873817832140    1.297758875330   -0.704920402281
 H   -3.919978812819    2.243515364493   -1.250310927931
 C   -3.873819048169    1.297760880724    0.704912824889
 H   -3.919980630522    2.243518932194    1.250300590424
