25

 C    3.767281076139    1.146655350776    0.704892445135
 H    3.860751076139    2.089105350776    1.250002445135
 C    3.767281076139    1.146655350776   -0.704887554865
 H    3.860751076139    2.089105350776   -1.249997554865
 C    3.737311076139   -0.073874649224    1.409802445135
 H    3.806961076139   -0.075274649224    2.500302445135
 C    3.737311076139   -0.073874649224   -1.409797554865
 H    3.806961076139   -0.075274649224   -2.500297554865
 C    3.707041076139   -1.294464649224    0.704912445135
 H    3.753201076139   -2.240224649224    1.250302445135
 C    3.707041076139   -1.294464649224   -0.704907554865
 H    3.753201076139   -2.240224649224   -1.250297554865
 K    1.175011076139   -0.023224649224    0.000002445135
 C   -4.353884825298   -1.135064134309   -0.704889789130
 H   -4.447345160779   -2.077519229440   -1.250000898770
 C   -4.353886119389   -1.135066080673    0.704881458902
 H   -4.447347148210   -2.077522705364    1.249989805168
 C   -4.323913421119    0.085474771525   -1.409802452495
 H   -4.393564604193    0.086870630732   -2.500309498402
 C   -4.323915931421    0.085474821147    1.409797547504
 H   -4.393568439061    0.086870706537    2.500304508776
 C   -4.293650018545    1.306057867262   -0.704920776177
 H   -4.339811824993    2.251814246964   -1.250311421750
 C   -4.293651234575    1.306059872656    0.704912450994
 H   -4.339813672142    2.251817813732    1.250300335577
