25

 C    4.087316608784    1.140329084029    0.704892730203
 H    4.180786608784    2.082779084029    1.250002730203
 C    4.087316608784    1.140329084029   -0.704887269797
 H    4.180786608784    2.082779084029   -1.249997269797
 C    4.057346608784   -0.080200915971    1.409802730203
 H    4.126996608784   -0.081600915971    2.500302730203
 C    4.057346608784   -0.080200915971   -1.409797269797
 H    4.126996608784   -0.081600915971   -2.500297269797
 C    4.027076608784   -1.300790915971    0.704912730203
 H    4.073236608784   -2.246550915971    1.250302730203
 C    4.027076608784   -1.300790915971   -0.704907269797
 H    4.073236608784   -2.246550915971   -1.250297269797
 K    1.495046608784   -0.029550915971    0.000002730203
 C   -4.833693038459   -1.125579572610   -0.704890216445
 H   -4.927152621937   -2.068034806617   -1.250001214912
 C   -4.833694332549   -1.125581518975    0.704881031588
 H   -4.927154637118   -2.068038280339    1.249989265729
 C   -4.803721634280    0.094959333223   -1.409802879809
 H   -4.873372789498    0.096355191880   -2.500309927497
 C   -4.803724144582    0.094959382845    1.409797120190
 H   -4.873376680078    0.096355268786    2.500304079682
 C   -4.773458231706    1.315542428960   -0.704921203491
 H   -4.819620822159    2.261298704736   -1.250311962924
 C   -4.773459447735    1.315544434355    0.704912023679
 H   -4.819622697266    2.261302270619    1.250300021290
