25

 C    4.167325491928    1.138747517273    0.704892801469
 H    4.260795491928    2.081197517273    1.250002801469
 C    4.167325491928    1.138747517273   -0.704887198531
 H    4.260795491928    2.081197517273   -1.249997198531
 C    4.137355491928   -0.081782482727    1.409802801469
 H    4.207005491928   -0.083182482727    2.500302801469
 C    4.137355491928   -0.081782482727   -1.409797198531
 H    4.207005491928   -0.083182482727   -2.500297198531
 C    4.107085491928   -1.302372482727    0.704912801469
 H    4.153245491928   -2.248132482727    1.250302801469
 C    4.107085491928   -1.302372482727   -0.704907198531
 H    4.153245491928   -2.248132482727   -1.250297198531
 K    1.575055491928   -0.031132482727    0.000002801469
 C   -4.953645091766   -1.123208432255   -0.704890323274
 H   -5.047104507989   -2.065663697149   -1.250001297015
 C   -4.953646385857   -1.123210378619    0.704880924758
 H   -5.047106529342   -2.065667170382    1.249989133961
 C   -4.923673687587    0.097330473579   -1.409802986639
 H   -4.993324836610    0.098726332113   -2.500310034722
 C   -4.923676197889    0.097330523201    1.409797013360
 H   -4.993328739581    0.098726409264    2.500303972457
 C   -4.893410285013    1.317913569316   -0.704921310321
 H   -4.939573049840    2.263669821976   -1.250312095077
 C   -4.893411501042    1.317915574710    0.704911916850
 H   -4.939574931165    2.263673387662    1.250299939600
