25

 C    4.367347699763    1.134793600282    0.704892979633
 H    4.460817699763    2.077243600282    1.250002979633
 C    4.367347699763    1.134793600282   -0.704887020367
 H    4.460817699763    2.077243600282   -1.249997020367
 C    4.337377699763   -0.085736399718    1.409802979633
 H    4.407027699763   -0.087136399718    2.500302979633
 C    4.337377699763   -0.085736399718   -1.409797020367
 H    4.407027699763   -0.087136399718   -2.500297020367
 C    4.307107699763   -1.306326399718    0.704912979633
 H    4.353267699763   -2.252086399718    1.250302979633
 C    4.307107699763   -1.306326399718   -0.704907020367
 H    4.353267699763   -2.252086399718   -1.250297020367
 K    1.775077699763   -0.035086399718    0.000002979633
 C   -5.253525225060   -1.117280581468   -0.704890590349
 H   -5.346984253751   -2.059735917928   -1.250001506800
 C   -5.253526519150   -1.117282527832    0.704880657683
 H   -5.346986289405   -2.059739390027    1.249988809105
 C   -5.223553820880    0.103258324366   -1.409803253713
 H   -5.293204955548    0.104654182616   -2.500310302714
 C   -5.223556331182    0.103258373988    1.409796746285
 H   -5.293208887229    0.104654260335    2.500303704465
 C   -5.193290418306    1.323841420103   -0.704921577395
 H   -5.239453587156    2.269597619206   -1.250312420827
 C   -5.193291634336    1.323843425497    0.704911649775
 H   -5.239455482888    2.269601184436    1.250299730772
