25

 C    4.487361024448    1.132421250024    0.704893086531
 H    4.580831024448    2.074871250024    1.250003086531
 C    4.487361024448    1.132421250024   -0.704886913469
 H    4.580831024448    2.074871250024   -1.249996913469
 C    4.457391024448   -0.088108749976    1.409803086531
 H    4.527041024448   -0.089508749976    2.500303086531
 C    4.457391024448   -0.088108749976   -1.409796913469
 H    4.527041024448   -0.089508749976   -2.500296913469
 C    4.427121024448   -1.308698749976    0.704913086531
 H    4.473281024448   -2.254458749976    1.250303086531
 C    4.427121024448   -1.308698749976   -0.704906913469
 H    4.473281024448   -2.254458749976   -1.250296913469
 K    1.895091024448   -0.037458749976    0.000003086531
 C   -5.433453305051   -1.113723871058   -0.704890750594
 H   -5.526912120085   -2.056179246975   -1.250001635459
 C   -5.433454599141   -1.113725817423    0.704880497438
 H   -5.526914163623   -2.056182718449    1.249988617003
 C   -5.403481900872    0.106815034775   -1.409803413959
 H   -5.473133027625    0.108210892869   -2.500310463465
 C   -5.403484411173    0.106815084397    1.409796586040
 H   -5.473136975135    0.108210970901    2.500303543714
 C   -5.373218498298    1.327398130512   -0.704921737641
 H   -5.419381889898    2.273154300088   -1.250312613422
 C   -5.373219714327    1.327400135907    0.704911489529
 H   -5.419383793573    2.273157865066    1.250299602640
