25

 C    4.767392115342    1.126885765933    0.704893335958
 H    4.860862115342    2.069335765933    1.250003335958
 C    4.767392115342    1.126885765933   -0.704886664042
 H    4.860862115342    2.069335765933   -1.249996664042
 C    4.737422115342   -0.093644234067    1.409803335958
 H    4.807072115342   -0.095044234067    2.500303335958
 C    4.737422115342   -0.093644234067   -1.409796664042
 H    4.807072115342   -0.095044234067   -2.500296664042
 C    4.707152115342   -1.314234234067    0.704913335958
 H    4.753312115342   -2.259994234067    1.250303335958
 C    4.707152115342   -1.314234234067   -0.704906664042
 H    4.753312115342   -2.259994234067   -1.250296664042
 K    2.175122115342   -0.042994234067    0.000003335958
 C   -5.853285491737   -1.105424880260   -0.704891124502
 H   -5.946743855435   -2.047880339526   -1.250001942644
 C   -5.853286785827   -1.105426826625    0.704880123530
 H   -5.946745915628   -2.047883809678    1.249988175800
 C   -5.823314087557    0.115114025573   -1.409803787867
 H   -5.892965197592    0.116509883337   -2.500310838441
 C   -5.823316597859    0.115114075196    1.409796212132
 H   -5.892969178539    0.116509962030    2.500303168737
 C   -5.793050684983    1.335697121310   -0.704922111549
 H   -5.839214547126    2.281453228511   -1.250313055665
 C   -5.793051901013    1.335699126705    0.704911115622
 H   -5.839216467582    2.281456792958    1.250299296569
