25

 C    4.887405439996    1.124513415549    0.704893442855
 H    4.980875439996    2.066963415549    1.250003442855
 C    4.887405439996    1.124513415549   -0.704886557145
 H    4.980875439996    2.066963415549   -1.249996557145
 C    4.857435439996   -0.096016584451    1.409803442855
 H    4.927085439996   -0.097416584451    2.500303442855
 C    4.857435439996   -0.096016584451   -1.409796557145
 H    4.927085439996   -0.097416584451   -2.500296557145
 C    4.827165439996   -1.316606584451    0.704913442855
 H    4.873325439996   -2.262366584451    1.250303442855
 C    4.827165439996   -1.316606584451   -0.704906557145
 H    4.873325439996   -2.262366584451   -1.250296557145
 K    2.295135439996   -0.045366584451    0.000003442855
 C   -6.033213571759   -1.101868169977   -0.704891284749
 H   -6.126671759836   -2.044323661675   -1.250002076928
 C   -6.033214865850   -1.101870116342    0.704879963283
 H   -6.126673826509   -2.044327131314    1.249987989368
 C   -6.003242167580    0.118670735856   -1.409803948114
 H   -6.072893271109    0.120066593491   -2.500310999104
 C   -6.003244677882    0.118670785478    1.409796051885
 H   -6.072897265067    0.120066672441    2.500303008075
 C   -5.972978765006    1.339253831593   -0.704922271796
 H   -6.019142810246    2.285009914523   -1.250313242503
 C   -5.972979981035    1.339255836988    0.704910955375
 H   -6.019144737230    2.285013478763    1.250299162718
