25

 C    4.967414323094    1.122931848609    0.704893514119
 H    5.060884323094    2.065381848609    1.250003514119
 C    4.967414323094    1.122931848609   -0.704886485881
 H    5.060884323094    2.065381848609   -1.249996485881
 C    4.937444323094   -0.097598151391    1.409803514119
 H    5.007094323094   -0.098998151391    2.500303514119
 C    4.937444323094   -0.097598151391   -1.409796485881
 H    5.007094323094   -0.098998151391   -2.500296485881
 C    4.907174323094   -1.318188151391    0.704913514119
 H    4.953334323094   -2.263948151391    1.250303514119
 C    4.907174323094   -1.318188151391   -0.704906485881
 H    4.953334323094   -2.263948151391   -1.250296485881
 K    2.375144323094   -0.046948151391    0.000003514119
 C   -6.153165625112   -1.099497029806   -0.704891391581
 H   -6.246623701399   -2.041952542149   -1.250002167233
 C   -6.153166919203   -1.099498976171    0.704879856452
 H   -6.246625772197   -2.041956011460    1.249987865869
 C   -6.123194220933    0.121041876027   -1.409804054945
 H   -6.192845320321    0.122437733580   -2.500311106200
 C   -6.123196731235    0.121041925649    1.409795945054
 H   -6.192849322561    0.122437812694    2.500302900979
 C   -6.092930818359    1.341624971764   -0.704922378627
 H   -6.139094980146    2.287381039244   -1.250313366260
 C   -6.092932034388    1.341626977159    0.704910848543
 H   -6.139096911286    2.287384603353    1.250299072689
