25

 C    5.007418764642    1.122141065133    0.704893549751
 H    5.100888764642    2.064591065133    1.250003549751
 C    5.007418764642    1.122141065133   -0.704886450249
 H    5.100888764642    2.064591065133   -1.249996450249
 C    4.977448764642   -0.098388934867    1.409803549751
 H    5.047098764642   -0.099788934867    2.500303549751
 C    4.977448764642   -0.098388934867   -1.409796450249
 H    5.047098764642   -0.099788934867   -2.500296450249
 C    4.947178764642   -1.318978934867    0.704913549751
 H    4.993338764642   -2.264738934867    1.250303549751
 C    4.947178764642   -1.318978934867   -0.704906450249
 H    4.993338764642   -2.264738934867   -1.250296450249
 K    2.415148764642   -0.047738934867    0.000003549751
 C   -6.213141651790   -1.098311459726   -0.704891444996
 H   -6.306599673684   -2.040766982113   -1.250002212608
 C   -6.213142945880   -1.098313406090    0.704879803036
 H   -6.306601746489   -2.040770451265    1.249987804343
 C   -6.183170247610    0.122227446108   -1.409804108361
 H   -6.252821344984    0.123623303621   -2.500311159744
 C   -6.183172757912    0.122227495730    1.409795891638
 H   -6.252825351253    0.123623382814    2.500302847434
 C   -6.152906845036    1.342810541845   -0.704922432043
 H   -6.199071063531    2.288566601807   -1.250313427912
 C   -6.152908061066    1.342812547239    0.704910795127
 H   -6.199072996693    2.288570165852    1.250299027449
