25

 C    5.047423206190    1.121350281655    0.704893585383
 H    5.140893206190    2.063800281655    1.250003585383
 C    5.047423206190    1.121350281655   -0.704886414617
 H    5.140893206190    2.063800281655   -1.249996414617
 C    5.017453206190   -0.099179718345    1.409803585383
 H    5.087103206190   -0.100579718345    2.500303585383
 C    5.017453206190   -0.099179718345   -1.409796414617
 H    5.087103206190   -0.100579718345   -2.500296414617
 C    4.987183206190   -1.319769718345    0.704913585383
 H    5.033343206190   -2.265529718345    1.250303585383
 C    4.987183206190   -1.319769718345   -0.704906414617
 H    5.033343206190   -2.265529718345   -1.250296414617
 K    2.455153206190   -0.048529718345    0.000003585383
 C   -6.273117678468   -1.097125889648   -0.704891498412
 H   -6.366575646935   -2.039581421902   -1.250002258125
 C   -6.273118972559   -1.097127836013    0.704879749620
 H   -6.366577721713   -2.039584890898    1.249987742961
 C   -6.243146274289    0.123413016185   -1.409804161777
 H   -6.312797369683    0.124808873659   -2.500311213286
 C   -6.243148784591    0.123413065807    1.409795838222
 H   -6.312801379911    0.124808952931    2.500302793892
 C   -6.212882871715    1.343996111922   -0.704922485459
 H   -6.259047145910    2.289752164501   -1.250313489417
 C   -6.212884087744    1.343998117316    0.704910741712
 H   -6.259049081059    2.289755728482    1.250298982063
