25

 C    5.327454296999    1.115814797223    0.704893834806
 H    5.420924296999    2.058264797223    1.250003834806
 C    5.327454296999    1.115814797223   -0.704886165194
 H    5.420924296999    2.058264797223   -1.249996165194
 C    5.297484296999   -0.104715202777    1.409803834806
 H    5.367134296999   -0.106115202777    2.500303834806
 C    5.297484296999   -0.104715202777   -1.409796165194
 H    5.367134296999   -0.106115202777   -2.500296165194
 C    5.267214296999   -1.325305202777    0.704913834806
 H    5.313374296999   -2.271065202777    1.250303834806
 C    5.267214296999   -1.325305202777   -0.704906165194
 H    5.313374296999   -2.271065202777   -1.250296165194
 K    2.735184296999   -0.054065202777    0.000003834806
 C   -6.692949865238   -1.088826899191   -0.704891872324
 H   -6.786407484728   -2.031282495890   -1.250002580446
 C   -6.692951159328   -1.088828845555    0.704879375709
 H   -6.786409572383   -2.031285963865    1.249987317017
 C   -6.662978461059    0.131712006643   -1.409804535688
 H   -6.732629543526    0.133107863861   -2.500311588024
 C   -6.662980971361    0.131712056265    1.409795464311
 H   -6.732633579608    0.133107943644    2.500302419154
 C   -6.632715058485    1.352295102380   -0.704922859370
 H   -6.678879696508    2.298051106729   -1.250313916166
 C   -6.632716274514    1.352297107774    0.704910367800
 H   -6.678881644631    2.298054670300    1.250298660604
