16

 N   -1.904256399110    0.839154421924   -0.392416575599
 C   -0.672130666843    0.208864141916   -0.391461615291
 N   -0.401989730717   -1.112021333052   -0.394925804238
 C    0.926139437746   -1.330215225802   -0.379358375575
 H    1.239947720716   -2.376893958292   -0.375978804884
 N    1.938488880787   -0.422234268661   -0.365387105300
 C    1.626272136880    0.888586814588   -0.370033509200
 N    2.633899091682    1.813085451893   -0.411855346131
 H    3.565350629069    1.482555343141   -0.189397411998
 H    2.401161585655    2.773056206932   -0.187045100691
 C    0.260771296006    1.265280668455   -0.378804596915
 N   -0.362758015185    2.504246369085   -0.368926387897
 C   -1.662683502342    2.196166980724   -0.377381241055
 H   -2.472737031129    2.922747781826   -0.373333103192
 H   -2.808046076280    0.378897298090   -0.400019631532
RB   -0.404353676083   -1.115127401708    0.605066577783
