16

 N   -1.904165145656    0.839274322957   -0.431018465389
 C   -0.672039413389    0.208984042949   -0.430063505081
 N   -0.401898477263   -1.111901432019   -0.433527694028
 C    0.926230691200   -1.330095324769   -0.417960265365
 H    1.240038974170   -2.376774057259   -0.414580694674
 N    1.938580134241   -0.422114367628   -0.403988995090
 C    1.626363390334    0.888706715621   -0.408635398990
 N    2.633990345136    1.813205352926   -0.450457235921
 H    3.565441882523    1.482675244174   -0.227999301788
 H    2.401252839109    2.773176107965   -0.225646990481
 C    0.260862549460    1.265400569488   -0.417406486705
 N   -0.362666761731    2.504366270118   -0.407528277687
 C   -1.662592248888    2.196286881757   -0.415983130845
 H   -2.472645777675    2.922867682859   -0.411934992982
 H   -2.807954822826    0.379017199123   -0.438621521322
RB   -0.404498817166   -1.115318107540    0.666463926195
