16

 N   -1.903800131842    0.839753927090   -0.585426024551
 C   -0.671674399575    0.209463647082   -0.584471064243
 N   -0.401533463449   -1.111421827886   -0.587935253190
 C    0.926595705014   -1.329615720636   -0.572367824527
 H    1.240403987984   -2.376294453126   -0.568988253836
 N    1.938945148055   -0.421634763495   -0.558396554252
 C    1.626728404148    0.889186319754   -0.563042958152
 N    2.634355358950    1.813684957059   -0.604864795083
 H    3.565806896337    1.483154848307   -0.382406860950
 H    2.401617852923    2.773655712098   -0.380054549643
 C    0.261227563274    1.265880173621   -0.571814045867
 N   -0.362301747917    2.504845874251   -0.561935836849
 C   -1.662227235074    2.196766485890   -0.570390690007
 H   -2.472280763861    2.923347286992   -0.566342552144
 H   -2.807589809012    0.379496803256   -0.593029080484
RB   -0.405079381498   -1.116080930869    0.912053319841
