16

 N   -1.903617624934    0.839993729157   -0.662629804132
 C   -0.671491892667    0.209703449149   -0.661674843824
 N   -0.401350956541   -1.111182025819   -0.665139032771
 C    0.926778211922   -1.329375918569   -0.649571604108
 H    1.240586494892   -2.376054651059   -0.646192033417
 N    1.939127654963   -0.421394961428   -0.635600333833
 C    1.626910911056    0.889426121821   -0.640246737733
 N    2.634537865858    1.813924759126   -0.682068574664
 H    3.565989403245    1.483394650374   -0.459610640531
 H    2.401800359831    2.773895514165   -0.457258329224
 C    0.261410070182    1.266119975688   -0.649017825448
 N   -0.362119241009    2.505085676318   -0.639139616430
 C   -1.662044728166    2.197006287957   -0.647594469588
 H   -2.472098256953    2.923587089059   -0.643546331725
 H   -2.807407302104    0.379736605323   -0.670232860065
RB   -0.405369663664   -1.116462342533    1.034848016664
