16

 N   -1.903252611120    0.840473333290   -0.817037363295
 C   -0.671126878853    0.210183053282   -0.816082402987
 N   -0.400985942727   -1.110702421686   -0.819546591934
 C    0.927143225736   -1.328896314436   -0.803979163271
 H    1.240951508706   -2.375575046926   -0.800599592580
 N    1.939492668777   -0.420915357295   -0.790007892996
 C    1.627275924870    0.889905725954   -0.794654296896
 N    2.634902879672    1.814404363259   -0.836476133827
 H    3.566354417059    1.483874254507   -0.614018199694
 H    2.402165373645    2.774375118298   -0.611665888387
 C    0.261775083996    1.266599579821   -0.803425384611
 N   -0.361754227195    2.505565280451   -0.793547175593
 C   -1.661679714352    2.197485892090   -0.802002028751
 H   -2.471733243139    2.924066693192   -0.797953890888
 H   -2.807042288290    0.380216209456   -0.824640419228
RB   -0.405950227996   -1.117225165862    1.280437410310
