16

 N   -1.902796343851    0.841072838457   -1.010046812247
 C   -0.670670611584    0.210782558449   -1.009091851939
 N   -0.400529675458   -1.110102916519   -1.012556040886
 C    0.927599493005   -1.328296809269   -0.996988612223
 H    1.241407775975   -2.374975541759   -0.993609041532
 N    1.939948936046   -0.420315852128   -0.983017341948
 C    1.627732192139    0.890505231121   -0.987663745848
 N    2.635359146941    1.815003868426   -1.029485582779
 H    3.566810684328    1.484473759674   -0.807027648646
 H    2.402621640914    2.774974623465   -0.804675337339
 C    0.262231351265    1.267199084988   -0.996434833563
 N   -0.361297959926    2.506164785618   -0.986556624545
 C   -1.661223447083    2.198085397257   -0.995011477703
 H   -2.471276975870    2.924666198359   -0.990963339840
 H   -2.806586021021    0.380815714623   -1.017649868180
RB   -0.406675933411   -1.118178695023    1.587424152368
