16

 N   -1.902431330037    0.841552442590   -1.164454371410
 C   -0.670305597770    0.211262162582   -1.163499411102
 N   -0.400164661644   -1.109623312386   -1.166963600049
 C    0.927964506819   -1.327817205136   -1.151396171386
 H    1.241772789789   -2.374495937626   -1.148016600695
 N    1.940313949860   -0.419836247995   -1.137424901111
 C    1.628097205953    0.890984835254   -1.142071305011
 N    2.635724160755    1.815483472559   -1.183893141942
 H    3.567175698142    1.484953363807   -0.961435207809
 H    2.402986654728    2.775454227598   -0.959082896502
 C    0.262596365079    1.267678689121   -1.150842392726
 N   -0.360932946112    2.506644389751   -1.140964183708
 C   -1.660858433269    2.198565001390   -1.149419036866
 H   -2.470911962056    2.925145802492   -1.145370899003
 H   -2.806221007207    0.381295318756   -1.172057427343
RB   -0.407256497743   -1.118941518352    1.833013546014
