16

 N   -1.902157569676    0.841912145690   -1.280260040781
 C   -0.670031837409    0.211621865682   -1.279305080473
 N   -0.399890901283   -1.109263609286   -1.282769269420
 C    0.928238267180   -1.327457502036   -1.267201840757
 H    1.242046550150   -2.374136234526   -1.263822270066
 N    1.940587710221   -0.419476544895   -1.253230570482
 C    1.628370966314    0.891344538354   -1.257876974382
 N    2.635997921116    1.815843175659   -1.299698811313
 H    3.567449458503    1.485313066907   -1.077240877180
 H    2.403260415089    2.775813930698   -1.074888565873
 C    0.262870125440    1.268038392221   -1.266648062097
 N   -0.360659185751    2.507004092851   -1.256769853079
 C   -1.660584672908    2.198924704490   -1.265224706237
 H   -2.470638201695    2.925505505592   -1.261176568374
 H   -2.805947246846    0.381655021856   -1.287863096714
RB   -0.407691920992   -1.119513635849    2.017205591249
