16

 N   -1.901883809315    0.842271848790   -1.396065710153
 C   -0.669758077048    0.211981568782   -1.395110749845
 N   -0.399617140922   -1.108903906186   -1.398574938792
 C    0.928512027541   -1.327097798936   -1.383007510129
 H    1.242320310511   -2.373776531426   -1.379627939438
 N    1.940861470582   -0.419116841795   -1.369036239854
 C    1.628644726675    0.891704241454   -1.373682643754
 N    2.636271681477    1.816202878759   -1.415504480685
 H    3.567723218864    1.485672770007   -1.193046546552
 H    2.403534175450    2.776173633798   -1.190694235245
 C    0.263143885801    1.268398095321   -1.382453731469
 N   -0.360385425390    2.507363795951   -1.372575522451
 C   -1.660310912547    2.199284407590   -1.381030375609
 H   -2.470364441334    2.925865208692   -1.376982237746
 H   -2.805673486485    0.382014724956   -1.403668766086
RB   -0.408127344241   -1.120085753345    2.201397636483
