16

 N   -1.901792555861    0.842391749823   -1.434667599944
 C   -0.669666823594    0.212101469815   -1.433712639636
 N   -0.399525887468   -1.108784005153   -1.437176828583
 C    0.928603280995   -1.326977897903   -1.421609399920
 H    1.242411563965   -2.373656630393   -1.418229829229
 N    1.940952724036   -0.418996940762   -1.407638129645
 C    1.628735980129    0.891824142487   -1.412284533545
 N    2.636362934931    1.816322779792   -1.454106370476
 H    3.567814472318    1.485792671040   -1.231648436343
 H    2.403625428904    2.776293534831   -1.229296125036
 C    0.263235139255    1.268517996354   -1.421055621260
 N   -0.360294171936    2.507483696984   -1.411177412242
 C   -1.660219659093    2.199404308623   -1.419632265400
 H   -2.470273187880    2.925985109725   -1.415584127537
 H   -2.805582233031    0.382134625989   -1.442270655877
RB   -0.408272485324   -1.120276459178    2.262794984895
