16

 N   -1.901518795500    0.842751452923   -1.550473269315
 C   -0.669393063233    0.212461172915   -1.549518309007
 N   -0.399252127107   -1.108424302053   -1.552982497954
 C    0.928877041356   -1.326618194803   -1.537415069291
 H    1.242685324326   -2.373296927293   -1.534035498600
 N    1.941226484397   -0.418637237662   -1.523443799016
 C    1.629009740490    0.892183845587   -1.528090202916
 N    2.636636695292    1.816682482892   -1.569912039847
 H    3.568088232679    1.486152374140   -1.347454105714
 H    2.403899189265    2.776653237931   -1.345101794407
 C    0.263508899616    1.268877699454   -1.536861290631
 N   -0.360020411575    2.507843400084   -1.526983081613
 C   -1.659945898732    2.199764011723   -1.535437934771
 H   -2.469999427519    2.926344812825   -1.531389796908
 H   -2.805308472670    0.382494329089   -1.558076325248
RB   -0.408707908573   -1.120848576674    2.446987030129
