16

 N   -1.901336288593    0.842991254990   -1.627677048896
 C   -0.669210556326    0.212700974982   -1.626722088588
 N   -0.399069620200   -1.108184499986   -1.630186277535
 C    0.929059548263   -1.326378392736   -1.614618848872
 H    1.242867831233   -2.373057125226   -1.611239278181
 N    1.941408991304   -0.418397435595   -1.600647578597
 C    1.629192247397    0.892423647654   -1.605293982497
 N    2.636819202199    1.816922284959   -1.647115819428
 H    3.568270739586    1.486392176207   -1.424657885295
 H    2.404081696172    2.776893039998   -1.422305573988
 C    0.263691406523    1.269117501521   -1.614065070212
 N   -0.359837904668    2.508083202151   -1.604186861194
 C   -1.659763391825    2.200003813790   -1.612641714352
 H   -2.469816920612    2.926584614892   -1.608593576489
 H   -2.805125965763    0.382734131156   -1.635280104829
RB   -0.408998190739   -1.121229988339    2.569781726952
