16

 N   -1.901153781685    0.843231057057   -1.704880828477
 C   -0.669028049418    0.212940777049   -1.703925868169
 N   -0.398887113292   -1.107944697919   -1.707390057116
 C    0.929242055171   -1.326138590669   -1.691822628453
 H    1.243050338141   -2.372817323159   -1.688443057762
 N    1.941591498212   -0.418157633528   -1.677851358178
 C    1.629374754305    0.892663449721   -1.682497762078
 N    2.637001709107    1.817162087026   -1.724319599009
 H    3.568453246494    1.486631978274   -1.501861664876
 H    2.404264203080    2.777132842065   -1.499509353569
 C    0.263873913431    1.269357303588   -1.691268849793
 N   -0.359655397760    2.508323004218   -1.681390640775
 C   -1.659580884917    2.200243615857   -1.689845493933
 H   -2.469634413704    2.926824416959   -1.685797356070
 H   -2.804943458855    0.382973933223   -1.712483884410
RB   -0.409288472904   -1.121611400003    2.692576423775
