16

 N   -1.900149993695    0.844549968423   -2.129501616174
 C   -0.668024261428    0.214259688415   -2.128546655866
 N   -0.397883325302   -1.106625786553   -2.132010844813
 C    0.930245843161   -1.324819679303   -2.116443416150
 H    1.244054126131   -2.371498411793   -2.113063845459
 N    1.942595286202   -0.416838722162   -2.102472145875
 C    1.630378542295    0.893982361087   -2.107118549775
 N    2.638005497097    1.818480998392   -2.148940386706
 H    3.569457034484    1.487950889640   -1.926482452573
 H    2.405267991070    2.778451753431   -1.924130141266
 C    0.264877701421    1.270676214954   -2.115889637490
 N   -0.358651609770    2.509641915584   -2.106011428472
 C   -1.658577096927    2.201562527223   -2.114466281630
 H   -2.468630625714    2.928143328325   -2.110418143767
 H   -2.803939670865    0.384292844589   -2.137104672107
RB   -0.410885024817   -1.123709164157    3.367947256302
