16

 N   -1.900058740241    0.844669869456   -2.168103505964
 C   -0.667933007974    0.214379589448   -2.167148545656
 N   -0.397792071848   -1.106505885520   -2.170612734603
 C    0.930337096615   -1.324699778270   -2.155045305940
 H    1.244145379585   -2.371378510760   -2.151665735249
 N    1.942686539656   -0.416718821129   -2.141074035665
 C    1.630469795749    0.894102262120   -2.145720439565
 N    2.638096750551    1.818600899425   -2.187542276496
 H    3.569548287938    1.488070790673   -1.965084342363
 H    2.405359244524    2.778571654464   -1.962732031056
 C    0.264968954875    1.270796115987   -2.154491527280
 N   -0.358560356316    2.509761816617   -2.144613318262
 C   -1.658485843473    2.201682428256   -2.153068171420
 H   -2.468539372260    2.928263229358   -2.149020033557
 H   -2.803848417411    0.384412745622   -2.175706561897
RB   -0.411030165900   -1.123899869990    3.429344604714
