16

 N   -1.899876233334    0.844909671523   -2.245307285545
 C   -0.667750501067    0.214619391515   -2.244352325237
 N   -0.397609564941   -1.106266083453   -2.247816514184
 C    0.930519603522   -1.324459976203   -2.232249085521
 H    1.244327886492   -2.371138708693   -2.228869514830
 N    1.942869046563   -0.416479019062   -2.218277815246
 C    1.630652302656    0.894342064187   -2.222924219146
 N    2.638279257458    1.818840701492   -2.264746056077
 H    3.569730794845    1.488310592740   -2.042288121944
 H    2.405541751431    2.778811456531   -2.039935810637
 C    0.265151461782    1.271035918054   -2.231695306861
 N   -0.358377849409    2.510001618684   -2.221817097843
 C   -1.658303336566    2.201922230323   -2.230271951001
 H   -2.468356865353    2.928503031425   -2.226223813138
 H   -2.803665910504    0.384652547689   -2.252910341478
RB   -0.411320448066   -1.124281281654    3.552139301537
