16

 N   -1.899602472973    0.845269374623   -2.361112954917
 C   -0.667476740706    0.214979094615   -2.360157994609
 N   -0.397335804580   -1.105906380353   -2.363622183556
 C    0.930793363883   -1.324100273103   -2.348054754893
 H    1.244601646853   -2.370779005593   -2.344675184202
 N    1.943142806924   -0.416119315962   -2.334083484618
 C    1.630926063017    0.894701767287   -2.338729888518
 N    2.638553017819    1.819200404592   -2.380551725449
 H    3.570004555206    1.488670295840   -2.158093791316
 H    2.405815511792    2.779171159631   -2.155741480009
 C    0.265425222143    1.271395621154   -2.347500976233
 N   -0.358104089048    2.510361321784   -2.337622767215
 C   -1.658029576205    2.202281933423   -2.346077620373
 H   -2.468083104992    2.928862734525   -2.342029482510
 H   -2.803392150143    0.385012250789   -2.368716010850
RB   -0.411755871315   -1.124853399151    3.736331346772
