16

 N   -1.899419966065    0.845509176690   -2.438316734498
 C   -0.667294233798    0.215218896682   -2.437361774190
 N   -0.397153297672   -1.105666578286   -2.440825963137
 C    0.930975870791   -1.323860471036   -2.425258534474
 H    1.244784153761   -2.370539203526   -2.421878963783
 N    1.943325313832   -0.415879513895   -2.411287264199
 C    1.631108569925    0.894941569354   -2.415933668099
 N    2.638735524727    1.819440206659   -2.457755505030
 H    3.570187062114    1.488910097907   -2.235297570897
 H    2.405998018700    2.779410961698   -2.232945259590
 C    0.265607729051    1.271635423221   -2.424704755814
 N   -0.357921582140    2.510601123851   -2.414826546796
 C   -1.657847069297    2.202521735490   -2.423281399954
 H   -2.467900598084    2.929102536592   -2.419233262091
 H   -2.803209643235    0.385252052856   -2.445919790431
RB   -0.412046153481   -1.125234810815    3.859126043595
