16

 N   -1.899328712612    0.845629077723   -2.476918624289
 C   -0.667202980345    0.215338797715   -2.475963663981
 N   -0.397062044219   -1.105546677253   -2.479427852928
 C    0.931067124244   -1.323740570003   -2.463860424265
 H    1.244875407214   -2.370419302493   -2.460480853574
 N    1.943416567285   -0.415759612862   -2.449889153990
 C    1.631199823378    0.895061470387   -2.454535557890
 N    2.638826778180    1.819560107692   -2.496357394821
 H    3.570278315567    1.489029998940   -2.273899460688
 H    2.406089272153    2.779530862731   -2.271547149381
 C    0.265698982504    1.271755324254   -2.463306645605
 N   -0.357830328687    2.510721024884   -2.453428436587
 C   -1.657755815844    2.202641636523   -2.461883289745
 H   -2.467809344631    2.929222437625   -2.457835151882
 H   -2.803118389782    0.385371953889   -2.484521680222
RB   -0.412191294564   -1.125425516647    3.920523392006
