16

 N   -1.899146205704    0.845868879790   -2.554122403870
 C   -0.667020473437    0.215578599782   -2.553167443562
 N   -0.396879537311   -1.105306875186   -2.556631632509
 C    0.931249631152   -1.323500767936   -2.541064203846
 H    1.245057914122   -2.370179500426   -2.537684633155
 N    1.943599074193   -0.415519810795   -2.527092933571
 C    1.631382330286    0.895301272454   -2.531739337471
 N    2.639009285088    1.819799909759   -2.573561174402
 H    3.570460822475    1.489269801007   -2.351103240269
 H    2.406271779061    2.779770664798   -2.348750928962
 C    0.265881489412    1.271995126321   -2.540510425186
 N   -0.357647821779    2.510960826951   -2.530632216168
 C   -1.657573308936    2.202881438590   -2.539087069326
 H   -2.467626837723    2.929462239692   -2.535038931463
 H   -2.802935882874    0.385611755956   -2.561725459803
RB   -0.412481576730   -1.125806928312    4.043318088829
