16

 N   -1.898781191890    0.846348483923   -2.708529963032
 C   -0.666655459623    0.216058203915   -2.707575002724
 N   -0.396514523497   -1.104827271053   -2.711039191671
 C    0.931614644966   -1.323021163803   -2.695471763008
 H    1.245422927936   -2.369699896293   -2.692092192317
 N    1.943964088007   -0.415040206662   -2.681500492733
 C    1.631747344100    0.895780876587   -2.686146896633
 N    2.639374298902    1.820279513892   -2.727968733564
 H    3.570825836289    1.489749405140   -2.505510799431
 H    2.406636792875    2.780250268931   -2.503158488124
 C    0.266246503226    1.272474730454   -2.694917984348
 N   -0.357282807965    2.511440431084   -2.685039775330
 C   -1.657208295122    2.203361042723   -2.693494628488
 H   -2.467261823909    2.929941843825   -2.689446490625
 H   -2.802570869060    0.386091360089   -2.716133018965
RB   -0.413062141062   -1.126569751641    4.288907482475
