16

 N   -1.898689938436    0.846468384956   -2.747131852822
 C   -0.666564206169    0.216178104948   -2.746176892514
 N   -0.396423270043   -1.104707370020   -2.749641081461
 C    0.931705898420   -1.322901262770   -2.734073652798
 H    1.245514181390   -2.369579995260   -2.730694082107
 N    1.944055341461   -0.414920305629   -2.720102382523
 C    1.631838597554    0.895900777620   -2.724748786423
 N    2.639465552356    1.820399414925   -2.766570623354
 H    3.570917089743    1.489869306173   -2.544112689221
 H    2.406728046329    2.780370169964   -2.541760377914
 C    0.266337756680    1.272594631487   -2.733519874138
 N   -0.357191554511    2.511560332117   -2.723641665120
 C   -1.657117041668    2.203480943756   -2.732096518278
 H   -2.467170570455    2.930061744858   -2.728048380415
 H   -2.802479615606    0.386211261122   -2.754734908755
RB   -0.413207282145   -1.126760457473    4.350304830887
