16

 N   -1.898598684982    0.846588285989   -2.785733742613
 C   -0.666472952715    0.216298005981   -2.784778782305
 N   -0.396332016589   -1.104587468987   -2.788242971252
 C    0.931797151874   -1.322781361737   -2.772675542589
 H    1.245605434844   -2.369460094227   -2.769295971898
 N    1.944146594915   -0.414800404596   -2.758704272314
 C    1.631929851008    0.896020678653   -2.763350676214
 N    2.639556805810    1.820519315958   -2.805172513145
 H    3.571008343197    1.489989207206   -2.582714579012
 H    2.406819299783    2.780490070997   -2.580362267705
 C    0.266429010134    1.272714532520   -2.772121763929
 N   -0.357100301057    2.511680233150   -2.762243554911
 C   -1.657025788214    2.203600844789   -2.770698408069
 H   -2.467079317001    2.930181645891   -2.766650270206
 H   -2.802388362152    0.386331162155   -2.793336798546
RB   -0.413352423228   -1.126951163305    4.411702179298
