16

 N   -1.897868657353    0.847547494256   -3.094548860937
 C   -0.665742925086    0.217257214248   -3.093593900629
 N   -0.395601988960   -1.103628260720   -3.097058089576
 C    0.932527179503   -1.321822153470   -3.081490660913
 H    1.246335462473   -2.368500885960   -3.078111090222
 N    1.944876622544   -0.413841196329   -3.067519390638
 C    1.632659878637    0.896979886920   -3.072165794538
 N    2.640286833439    1.821478524225   -3.113987631469
 H    3.571738370826    1.490948415473   -2.891529697336
 H    2.407549327412    2.781449279264   -2.889177386029
 C    0.267159037763    1.273673740787   -3.080936882253
 N   -0.356370273428    2.512639441417   -3.071058673235
 C   -1.656295760585    2.204560053056   -3.079513526393
 H   -2.466349289372    2.931140854158   -3.075465388530
 H   -2.801658334523    0.387290370422   -3.102151916870
RB   -0.414513551891   -1.128476809963    4.902880966591
