16

 N   -1.897412390085    0.848146999423   -3.287558309890
 C   -0.665286657818    0.217856719415   -3.286603349582
 N   -0.395145721692   -1.103028755553   -3.290067538529
 C    0.932983446771   -1.321222648303   -3.274500109866
 H    1.246791729741   -2.367901380793   -3.271120539175
 N    1.945332889812   -0.413241691162   -3.260528839591
 C    1.633116145905    0.897579392087   -3.265175243491
 N    2.640743100707    1.822078029392   -3.306997080422
 H    3.572194638094    1.491547920640   -3.084539146289
 H    2.408005594680    2.782048784431   -3.082186834982
 C    0.267615305031    1.274273245954   -3.273946331206
 N   -0.355914006160    2.513238946584   -3.264068122188
 C   -1.655839493317    2.205159558223   -3.272522975346
 H   -2.465893022104    2.931740359325   -3.268474837483
 H   -2.801202067255    0.387889875589   -3.295161365823
RB   -0.415239257306   -1.129430339124    5.209867708648
