16

 N   -1.896956122816    0.848746504589   -3.480567758843
 C   -0.664830390549    0.218456224581   -3.479612798535
 N   -0.394689454423   -1.102429250387   -3.483076987482
 C    0.933439714040   -1.320623143137   -3.467509558819
 H    1.247247997010   -2.367301875627   -3.464129988128
 N    1.945789157081   -0.412642185996   -3.453538288544
 C    1.633572413174    0.898178897253   -3.458184692444
 N    2.641199367976    1.822677534558   -3.500006529375
 H    3.572650905363    1.492147425806   -3.277548595242
 H    2.408461861949    2.782648289597   -3.275196283935
 C    0.268071572300    1.274872751120   -3.466955780159
 N   -0.355457738891    2.513838451750   -3.457077571141
 C   -1.655383226048    2.205759063389   -3.465532424299
 H   -2.465436754835    2.932339864491   -3.461484286436
 H   -2.800745799986    0.388489380755   -3.488170814776
RB   -0.415964962721   -1.130383868285    5.516854450706
