16

 N   -1.896682362455    0.849106207689   -3.596373428215
 C   -0.664556630188    0.218815927681   -3.595418467907
 N   -0.394415694062   -1.102069547287   -3.598882656854
 C    0.933713474401   -1.320263440037   -3.583315228191
 H    1.247521757371   -2.366942172527   -3.579935657500
 N    1.946062917442   -0.412282482896   -3.569343957916
 C    1.633846173535    0.898538600353   -3.573990361816
 N    2.641473128337    1.823037237658   -3.615812198747
 H    3.572924665724    1.492507128906   -3.393354264614
 H    2.408735622310    2.783007992697   -3.391001953307
 C    0.268345332661    1.275232454220   -3.582761449531
 N   -0.355183978530    2.514198154850   -3.572883240513
 C   -1.655109465687    2.206118766489   -3.581338093671
 H   -2.465162994474    2.932699567591   -3.577289955808
 H   -2.800472039625    0.388849083855   -3.603976484148
RB   -0.416400385970   -1.130955985782    5.701046495941
