16

 N   -1.896591109002    0.849226108723   -3.634975318005
 C   -0.664465376735    0.218935828715   -3.634020357697
 N   -0.394324440609   -1.101949646253   -3.637484546644
 C    0.933804727854   -1.320143539003   -3.621917117981
 H    1.247613010824   -2.366822271493   -3.618537547290
 N    1.946154170895   -0.412162581862   -3.607945847706
 C    1.633937426988    0.898658501387   -3.612592251606
 N    2.641564381790    1.823157138692   -3.654414088537
 H    3.573015919177    1.492627029940   -3.431956154404
 H    2.408826875763    2.783127893731   -3.429603843097
 C    0.268436586114    1.275352355254   -3.621363339321
 N   -0.355092725077    2.514318055884   -3.611485130303
 C   -1.655018212234    2.206238667523   -3.619939983461
 H   -2.465071741021    2.932819468625   -3.615891845598
 H   -2.800380786172    0.388968984889   -3.642578373938
RB   -0.416545527053   -1.131146691614    5.762443844352
