16

 N   -1.896408602094    0.849465910789   -3.712179097586
 C   -0.664282869827    0.219175630781   -3.711224137278
 N   -0.394141933701   -1.101709844187   -3.714688326225
 C    0.933987234762   -1.319903736937   -3.699120897562
 H    1.247795517732   -2.366582469427   -3.695741326871
 N    1.946336677803   -0.411922779796   -3.685149627287
 C    1.634119933896    0.898898303453   -3.689796031187
 N    2.641746888698    1.823396940758   -3.731617868118
 H    3.573198426085    1.492866832006   -3.509159933985
 H    2.409009382671    2.783367695797   -3.506807622678
 C    0.268619093022    1.275592157320   -3.698567118902
 N   -0.354910218169    2.514557857950   -3.688688909884
 C   -1.654835705326    2.206478469589   -3.697143763042
 H   -2.464889234113    2.933059270691   -3.693095625179
 H   -2.800198279264    0.389208786955   -3.719782153519
RB   -0.416835809219   -1.131528103278    5.885238541175
