16

 N   -1.896226095187    0.849705712856   -3.789382877167
 C   -0.664100362920    0.219415432848   -3.788427916859
 N   -0.393959426794   -1.101470042120   -3.791892105806
 C    0.934169741669   -1.319663934870   -3.776324677143
 H    1.247978024639   -2.366342667360   -3.772945106452
 N    1.946519184710   -0.411682977729   -3.762353406868
 C    1.634302440803    0.899138105520   -3.766999810768
 N    2.641929395605    1.823636742825   -3.808821647699
 H    3.573380932992    1.493106634073   -3.586363713566
 H    2.409191889578    2.783607497864   -3.584011402259
 C    0.268801599929    1.275831959387   -3.775770898483
 N   -0.354727711262    2.514797660017   -3.765892689465
 C   -1.654653198419    2.206718271656   -3.774347542623
 H   -2.464706727206    2.933299072758   -3.770299404760
 H   -2.800015772357    0.389448589022   -3.796985933100
RB   -0.417126091385   -1.131909514943    6.008033237998
