17

 N   -1.833121223955   -1.217130152688   -0.003385038539
 C   -0.622933157111   -0.561923949012    0.000576585429
 N    0.610479257192   -1.160601643474    0.012614870334
 C    1.580902457248   -0.270425501863    0.000742413361
 N    1.377825619835    1.091212631651   -0.006092746981
 H    2.181652745086    1.711173171406   -0.088080769403
 N    2.906357211485   -0.689100223543   -0.077604889874
 H    3.560893416817   -0.157296999143    0.490035886856
 H    2.985162298876   -1.689800367478    0.083978448115
 C    0.118551877518    1.777246335182    0.006861039696
 O    0.090971508413    3.005419419959    0.002772911268
 C   -0.954233248458    0.803552945908    0.013062237636
 N   -2.325306550227    0.989883991221    0.012987052920
 C   -2.818830044738   -0.248719022824    0.002656953255
 H   -3.876327958006   -0.502865644656   -0.000289691171
 H   -1.958218220486   -2.223713237920   -0.012044589570
NA    0.768954168317   -2.147910582918    0.002282366363
