17

 N   -1.839401364432   -1.178004471596   -0.002975575767
 C   -0.629213297588   -0.522798267920    0.000986048201
 N    0.604199116715   -1.121475962382    0.013024333106
 C    1.574622316771   -0.231299820771    0.001151876133
 N    1.371545479358    1.130338312743   -0.005683284209
 H    2.175372604609    1.750298852498   -0.087671306631
 N    2.900077071008   -0.649974542451   -0.077195427102
 H    3.554613276340   -0.118171318051    0.490445349628
 H    2.978882158399   -1.650674686386    0.084387910887
 C    0.112271737041    1.816372016274    0.007270502468
 O    0.084691367936    3.044545101051    0.003182374040
 C   -0.960513388935    0.842678627000    0.013471700408
 N   -2.331586690704    1.029009672313    0.013396515692
 C   -2.825110185215   -0.209593341732    0.003066416027
 H   -3.882608098483   -0.463739963564    0.000119771601
 H   -1.964498360963   -2.184587556828   -0.011635126798
NA    0.810216501177   -2.404977583659   -0.000407922056
