17

 N   -1.845681504908   -1.138878790504   -0.002566112995
 C   -0.635493438064   -0.483672586828    0.001395510973
 N    0.597918976239   -1.082350281290    0.013433795878
 C    1.568342176295   -0.192174139679    0.001561338905
 N    1.365265338882    1.169463993835   -0.005273821437
 H    2.169092464133    1.789424533590   -0.087261843859
 N    2.893796930532   -0.610848861359   -0.076785964330
 H    3.548333135864   -0.079045636959    0.490854812400
 H    2.972602017923   -1.611549005294    0.084797373659
 C    0.105991596565    1.855497697366    0.007679965240
 O    0.078411227460    3.083670782143    0.003591836812
 C   -0.966793529411    0.881804308092    0.013881163180
 N   -2.337866831180    1.068135353405    0.013805978464
 C   -2.831390325691   -0.170467660640    0.003475878799
 H   -3.888888238959   -0.424614282472    0.000529234373
 H   -1.970778501439   -2.145461875736   -0.011225664026
NA    0.851478834038   -2.662044584401   -0.003098210475
