17

 N   -1.858241785862   -1.060627428321   -0.001747187451
 C   -0.648053719018   -0.405421224645    0.002214436517
 N    0.585358695285   -1.004098919107    0.014252721422
 C    1.555781895341   -0.113922777496    0.002380264449
 N    1.352705057928    1.247715356018   -0.004454895893
 H    2.156532183179    1.867675895773   -0.086442918315
 N    2.881236649578   -0.532597499176   -0.075967038786
 H    3.535772854910   -0.000794274776    0.491673737944
 H    2.960041736969   -1.533297643111    0.085616299203
 C    0.093431315611    1.933749059549    0.008498890784
 O    0.065850946506    3.161922144326    0.004410762356
 C   -0.979353810365    0.960055670275    0.014700088724
 N   -2.350427112134    1.146386715588    0.014624904008
 C   -2.843950606645   -0.092216298457    0.004294804343
 H   -3.901448519913   -0.346362920289    0.001348159917
 H   -1.983338782393   -2.067210513553   -0.010406738482
NA    0.934003499759   -3.176178585883   -0.008478787313
