17

 N   -1.860335166021   -1.047585534623   -0.001610699860
 C   -0.650147099177   -0.392379330947    0.002350924108
 N    0.583265315126   -0.991057025409    0.014389209013
 C    1.553688515182   -0.100880883798    0.002516752040
 N    1.350611677769    1.260757249716   -0.004318408302
 H    2.154438803020    1.880717789471   -0.086306430724
 N    2.879143269419   -0.519555605478   -0.075830551195
 H    3.533679474751    0.012247618922    0.491810225535
 H    2.957948356810   -1.520255749413    0.085752786794
 C    0.091337935452    1.946790953247    0.008635378375
 O    0.063757566347    3.174964038024    0.004547249947
 C   -0.981447190524    0.973097563973    0.014836576315
 N   -2.352520492293    1.159428609286    0.014761391599
 C   -2.846043986804   -0.079174404759    0.004431291934
 H   -3.903541900072   -0.333321026591    0.001484647508
 H   -1.985432162552   -2.054168619855   -0.010270250891
NA    0.947757610713   -3.261867586130   -0.009375550119
