17

 N   -1.874988827134   -0.956292278742   -0.000655286726
 C   -0.664800760290   -0.301086075066    0.003306337242
 N    0.568611654013   -0.899763769528    0.015344622147
 C    1.539034854069   -0.009587627917    0.003472165174
 N    1.335958016656    1.352050505597   -0.003362995168
 H    2.139785141907    1.972011045352   -0.085351017590
 N    2.864489608306   -0.428262349597   -0.074875138061
 H    3.519025813638    0.103540874803    0.492765638669
 H    2.943294695697   -1.428962493532    0.086708199928
 C    0.076684274339    2.038084209128    0.009590791509
 O    0.049103905234    3.266257293905    0.005502663081
 C   -0.996100851637    1.064390819854    0.015791989449
 N   -2.367174153406    1.250721865167    0.015716804733
 C   -2.860697647917    0.012118851122    0.005386705068
 H   -3.918195561185   -0.242027770710    0.002440060642
 H   -2.000085823665   -1.962875363974   -0.009314837757
NA    1.044036387387   -3.861690587860   -0.015652889764
