17

 N   -1.881268967610   -0.917166597651   -0.000245823953
 C   -0.671080900766   -0.261960393975    0.003715800015
 N    0.562331513537   -0.860638088437    0.015754084920
 C    1.532754713593    0.029538053174    0.003881627947
 N    1.329677876180    1.391176186688   -0.002953532395
 H    2.133505001431    2.011136726443   -0.084941554817
 N    2.858209467830   -0.389136668506   -0.074465675288
 H    3.512745673162    0.142666555894    0.493175101442
 H    2.937014555221   -1.389836812441    0.087117662701
 C    0.070404133863    2.077209890219    0.010000254282
 O    0.042823764758    3.305382974996    0.005912125854
 C   -1.002380992113    1.103516500945    0.016201452222
 N   -2.373454293882    1.289847546258    0.016126267506
 C   -2.866977788393    0.051244532213    0.005796167841
 H   -3.924475701661   -0.202902089619    0.002849523415
 H   -2.006365964141   -1.923749682883   -0.008905374984
NA    1.085298720248   -4.118757588601   -0.018343178183
