17

 N   -1.885455727928   -0.891082810256    0.000027151228
 C   -0.675267661084   -0.235876606580    0.003988775196
 N    0.558144753219   -0.834554301042    0.016027060101
 C    1.528567953275    0.055621840569    0.004154603128
 N    1.325491115862    1.417259974083   -0.002680557214
 H    2.129318241113    2.037220513838   -0.084668579636
 N    2.854022707512   -0.363052881111   -0.074192700107
 H    3.508558912844    0.168750343289    0.493448076623
 H    2.932827794903   -1.363753025046    0.087390637882
 C    0.066217373545    2.103293677614    0.010273229463
 O    0.038637004440    3.331466762391    0.006185101035
 C   -1.006567752431    1.129600288340    0.016474427403
 N   -2.377641054200    1.315931333653    0.016399242687
 C   -2.871164548711    0.077328319608    0.006069143022
 H   -3.928662461979   -0.176818302224    0.003122498596
 H   -2.010552724459   -1.897665895488   -0.008632399803
NA    1.112806942155   -4.290135589096   -0.020136703796
