17

 N   -1.887549108087   -0.878040916559    0.000163638819
 C   -0.677361041243   -0.222834712883    0.004125262787
 N    0.556051373060   -0.821512407345    0.016163547692
 C    1.526474573116    0.068663734266    0.004291090719
 N    1.323397735703    1.430301867780   -0.002544069623
 H    2.127224860954    2.050262407535   -0.084532092045
 N    2.851929327353   -0.350010987414   -0.074056212516
 H    3.506465532685    0.181792236986    0.493584564214
 H    2.930734414744   -1.350711131349    0.087527125473
 C    0.064123993386    2.116335571311    0.010409717054
 O    0.036543624281    3.344508656088    0.006321588626
 C   -1.008661132590    1.142642182037    0.016610914994
 N   -2.379734434359    1.328973227350    0.016535730278
 C   -2.873257928870    0.090370213305    0.006205630613
 H   -3.930755842138   -0.163776408527    0.003258986187
 H   -2.012646104618   -1.884624001791   -0.008495912212
NA    1.126561053108   -4.375824589343   -0.021033466602
