17

 N   -1.895922628723   -0.825873341770    0.000709589181
 C   -0.685734561879   -0.170667138094    0.004671213149
 N    0.547677852424   -0.769344832556    0.016709498054
 C    1.518101052480    0.120831309055    0.004837041081
 N    1.315024215067    1.482469442569   -0.001998119261
 H    2.118851340318    2.102429982324   -0.083986141683
 N    2.843555806717   -0.297843412625   -0.073510262154
 H    3.498092012049    0.233959811775    0.494130514576
 H    2.922360894108   -1.298543556560    0.088073075835
 C    0.055750472750    2.168503146100    0.010955667416
 O    0.028170103645    3.396676230877    0.006867538988
 C   -1.017034653226    1.194809756826    0.017156865356
 N   -2.388107954995    1.381140802139    0.017081680640
 C   -2.881631449506    0.142537788094    0.006751580975
 H   -3.939129362774   -0.111608833738    0.003804936549
 H   -2.021019625254   -1.832456427002   -0.007949961850
NA    1.181577496922   -4.718580590331   -0.024620517827
