17

 N   -1.912669669994   -0.721538192191    0.001801489907
 C   -0.702481603150   -0.066331988515    0.005763113875
 N    0.530930811153   -0.665009682977    0.017801398780
 C    1.501354011209    0.225166458634    0.005928941807
 N    1.298277173796    1.586804592148   -0.000906218535
 H    2.102104299047    2.206765131903   -0.082894240957
 N    2.826808765446   -0.193508263046   -0.072418361428
 H    3.481344970778    0.338294961354    0.495222415302
 H    2.905613852837   -1.194208406981    0.089164976561
 C    0.039003431479    2.272838295679    0.012047568142
 O    0.011423062374    3.501011380456    0.007959439714
 C   -1.033781694497    1.299144906405    0.018248766082
 N   -2.404854996266    1.485475951718    0.018173581366
 C   -2.898378490777    0.246872937673    0.007843481701
 H   -3.955876404045   -0.007273684159    0.004896837275
 H   -2.037766666525   -1.728121277423   -0.006858061124
NA    1.291610384551   -5.404092592308   -0.031794620278
