17

 N   -1.914763050153   -0.708496298494    0.001937977498
 C   -0.704574983309   -0.053290094818    0.005899601466
 N    0.528837430994   -0.651967789280    0.017937886371
 C    1.499260631050    0.238208352331    0.006065429398
 N    1.296183793637    1.599846485845   -0.000769730944
 H    2.100010918888    2.219807025600   -0.082757753366
 N    2.824715385287   -0.180466369349   -0.072281873837
 H    3.479251590619    0.351336855051    0.495358902893
 H    2.903520472678   -1.181166513284    0.089301464152
 C    0.036910051320    2.285880189376    0.012184055733
 O    0.009329682215    3.514053274153    0.008095927305
 C   -1.035875074656    1.312186800102    0.018385253673
 N   -2.406948376425    1.498517845415    0.018310068957
 C   -2.900471870936    0.259914831370    0.007979969292
 H   -3.957969784204    0.005768209538    0.005033324866
 H   -2.039860046684   -1.715079383726   -0.006721573533
NA    1.305364495504   -5.489781592555   -0.032691383085
