17

 N   -1.923136570789   -0.656328723705    0.002483927860
 C   -0.712948503945   -0.001122520029    0.006445551828
 N    0.520463910358   -0.599800214491    0.018483836733
 C    1.490887110414    0.290375927120    0.006611379760
 N    1.287810273001    1.652014060634   -0.000223780582
 H    2.091637398252    2.271974600389   -0.082211803004
 N    2.816341864651   -0.128298794560   -0.071735923475
 H    3.470878069983    0.403504429840    0.495904853255
 H    2.895146952042   -1.128998938495    0.089847414514
 C    0.028536530684    2.338047764165    0.012730006095
 O    0.000956161579    3.566220848942    0.008641877667
 C   -1.044248595292    1.364354374891    0.018931204035
 N   -2.415321897061    1.550685420204    0.018856019319
 C   -2.908845391572    0.312082406159    0.008525919654
 H   -3.966343304840    0.057935784327    0.005579275228
 H   -2.048233567320   -1.662911808937   -0.006175623171
NA    1.360380939318   -5.832537593543   -0.036278434310
