17

 N   -1.927323331107   -0.630244936310    0.002756903042
 C   -0.717135264263    0.024961267366    0.006718527010
 N    0.516277150040   -0.573716427096    0.018756811915
 C    1.486700350096    0.316459714515    0.006884354942
 N    1.283623512683    1.678097848029    0.000049194600
 H    2.087450637934    2.298058387784   -0.081938827822
 N    2.812155104333   -0.102215007165   -0.071462948293
 H    3.466691309665    0.429588217235    0.496177828437
 H    2.890960191724   -1.102915151100    0.090120389696
 C    0.024349770366    2.364131551560    0.013002981277
 O   -0.003230598739    3.592304636337    0.008914852849
 C   -1.048435355610    1.390438162286    0.019204179217
 N   -2.419508657379    1.576769207599    0.019128994501
 C   -2.913032151890    0.338166193554    0.008798894836
 H   -3.970530065158    0.084019571722    0.005852250410
 H   -2.052420327638   -1.636828021542   -0.005902647989
NA    1.387889161225   -6.003915594038   -0.038071959923
