17

 N   -1.931510091425   -0.604161148916    0.003029878223
 C   -0.721322024581    0.051045054760    0.006991502191
 N    0.512090389722   -0.547632639702    0.019029787096
 C    1.482513589778    0.342543501909    0.007157330123
 N    1.279436752365    1.704181635423    0.000322169781
 H    2.083263877616    2.324142175178   -0.081665852641
 N    2.807968344015   -0.076131219771   -0.071189973112
 H    3.462504549347    0.455672004629    0.496450803618
 H    2.886773431406   -1.076831363706    0.090393364877
 C    0.020163010048    2.390215338954    0.013275956458
 O   -0.007417359057    3.618388423731    0.009187828030
 C   -1.052622115928    1.416521949680    0.019477154398
 N   -2.423695417697    1.602852994993    0.019401969682
 C   -2.917218912208    0.364249980948    0.009071870017
 H   -3.974716825476    0.110103359116    0.006125225591
 H   -2.056607087956   -1.610744234148   -0.005629672808
NA    1.415397383132   -6.175293594532   -0.039865485535
