17

 N   -1.933603471584   -0.591119255219    0.003166365814
 C   -0.723415404740    0.064086948457    0.007127989782
 N    0.509997009563   -0.534590746005    0.019166274687
 C    1.480420209619    0.355585395606    0.007293817714
 N    1.277343372206    1.717223529120    0.000458657372
 H    2.081170497457    2.337184068875   -0.081529365050
 N    2.805874963856   -0.063089326074   -0.071053485521
 H    3.460411169188    0.468713898326    0.496587291209
 H    2.884680051247   -1.063789470009    0.090529852468
 C    0.018069629889    2.403257232651    0.013412444049
 O   -0.009510739216    3.631430317428    0.009324315621
 C   -1.054715496087    1.429563843377    0.019613641989
 N   -2.425788797856    1.615894888690    0.019538457273
 C   -2.919312292367    0.377291874645    0.009208357608
 H   -3.976810205635    0.123145252813    0.006261713182
 H   -2.058700468115   -1.597702340451   -0.005493185217
NA    1.429151494086   -6.260982594779   -0.040762248342
