17

 N   -1.941976992220   -0.538951680429    0.003712316176
 C   -0.731788925376    0.116254523247    0.007673940144
 N    0.501623488927   -0.482423171215    0.019712225049
 C    1.472046688983    0.407752970396    0.007839768076
 N    1.268969851570    1.769391103910    0.001004607734
 H    2.072796976821    2.389351643665   -0.080983414688
 N    2.797501443220   -0.010921751284   -0.070507535159
 H    3.452037648552    0.520881473116    0.497133241571
 H    2.876306530611   -1.011621895219    0.091075802830
 C    0.009696109253    2.455424807441    0.013958394411
 O   -0.017884259852    3.683597892218    0.009870265983
 C   -1.063089016723    1.481731418167    0.020159592351
 N   -2.434162318492    1.668062463480    0.020084407635
 C   -2.927685813003    0.429459449435    0.009754307970
 H   -3.985183726271    0.175312827603    0.006807663544
 H   -2.067073988751   -1.545534765661   -0.004947234855
NA    1.484167937900   -6.603738595767   -0.044349299567
