17

 N   -1.948257132696   -0.499825999338    0.004121778949
 C   -0.738069065852    0.155380204338    0.008083402917
 N    0.495343348451   -0.443297490124    0.020121687822
 C    1.465766548507    0.446878651487    0.008249230849
 N    1.262689711094    1.808516785001    0.001414070507
 H    2.066516836345    2.428477324756   -0.080573951915
 N    2.791221302744    0.028203929807   -0.070098072386
 H    3.445757508076    0.560007154207    0.497542704344
 H    2.870026390135   -0.972496214128    0.091485265603
 C    0.003415968777    2.494550488532    0.014367857184
 O   -0.024164400328    3.722723573309    0.010279728756
 C   -1.069369157199    1.520857099258    0.020569055124
 N   -2.440442458968    1.707188144571    0.020493870408
 C   -2.933965953479    0.468585130526    0.010163770743
 H   -3.991463866747    0.214438508694    0.007217126317
 H   -2.073354129227   -1.506409084570   -0.004537772082
NA    1.525430270760   -6.860805596509   -0.047039587986
