17

 N   -1.950350512855   -0.486784105640    0.004258266539
 C   -0.740162446011    0.168422098036    0.008219890507
 N    0.493249968292   -0.430255596426    0.020258175412
 C    1.463673168348    0.459920545185    0.008385718439
 N    1.260596330935    1.821558678699    0.001550558097
 H    2.064423456186    2.441519218454   -0.080437464325
 N    2.789127922585    0.041245823505   -0.069961584796
 H    3.443664127917    0.573049047905    0.497679191934
 H    2.867933009976   -0.959454320430    0.091621753193
 C    0.001322588618    2.507592382230    0.014504344774
 O   -0.026257780487    3.735765467007    0.010416216346
 C   -1.071462537358    1.533898992956    0.020705542714
 N   -2.442535839127    1.720230038269    0.020630357998
 C   -2.936059333638    0.481627024224    0.010300258333
 H   -3.993557246906    0.227480402392    0.007353613907
 H   -2.075447509386   -1.493367190872   -0.004401284492
NA    1.539184381714   -6.946494596756   -0.047936350793
