17

 N   -1.952443893014   -0.473742211943    0.004394754130
 C   -0.742255826170    0.181463991733    0.008356378098
 N    0.491156588133   -0.417213702729    0.020394663003
 C    1.461579788189    0.472962438882    0.008522206030
 N    1.258502950776    1.834600572396    0.001687045688
 H    2.062330076027    2.454561112151   -0.080300976734
 N    2.787034542426    0.054287717202   -0.069825097205
 H    3.441570747758    0.586090941602    0.497815679525
 H    2.865839629817   -0.946412426733    0.091758240784
 C   -0.000770791541    2.520634275927    0.014640832365
 O   -0.028351160646    3.748807360704    0.010552703937
 C   -1.073555917517    1.546940886653    0.020842030305
 N   -2.444629219286    1.733271931966    0.020766845589
 C   -2.938152713797    0.494668917921    0.010436745924
 H   -3.995650627065    0.240522296089    0.007490101498
 H   -2.077540889545   -1.480325297175   -0.004264796901
NA    1.552938492667   -7.032183597003   -0.048833113599
