17

 N   -1.965004173968   -0.395490849759    0.005213679674
 C   -0.754816107124    0.259715353917    0.009175303642
 N    0.478596307179   -0.338962340545    0.021213588547
 C    1.449019507235    0.551213801066    0.009341131574
 N    1.245942669822    1.912851934580    0.002505971232
 H    2.049769795073    2.532812474335   -0.079482051190
 N    2.774474261472    0.132539079386   -0.069006171661
 H    3.429010466804    0.664342303786    0.498634605069
 H    2.853279348863   -0.868161064549    0.092577166328
 C   -0.013331072495    2.598885638111    0.015459757909
 O   -0.040911441600    3.827058722888    0.011371629481
 C   -1.086116198471    1.625192248837    0.021660955849
 N   -2.457189500240    1.811523294150    0.021585771133
 C   -2.950712994751    0.572920280105    0.011255671468
 H   -4.008210908019    0.318773658273    0.008309027042
 H   -2.090101170499   -1.402073934991   -0.003445871357
NA    1.635463158389   -7.546317598486   -0.054213690437
