17

 N   -1.969190934286   -0.369407062365    0.005486654855
 C   -0.759002867442    0.285799141311    0.009448278823
 N    0.474409546861   -0.312878553151    0.021486563728
 C    1.444832746917    0.577297588460    0.009614106755
 N    1.241755909504    1.938935721974    0.002778946413
 H    2.045583034755    2.558896261729   -0.079209076009
 N    2.770287501154    0.158622866780   -0.068733196480
 H    3.424823706486    0.690426091180    0.498907580250
 H    2.849092588545   -0.842077277155    0.092850141509
 C   -0.017517832813    2.624969425505    0.015732733090
 O   -0.045098201918    3.853142510282    0.011644604662
 C   -1.090302958789    1.651276036231    0.021933931030
 N   -2.461376260558    1.837607081544    0.021858746314
 C   -2.954899755069    0.599004067499    0.011528646649
 H   -4.012397668337    0.344857445667    0.008582002223
 H   -2.094287930817   -1.375990147597   -0.003172896176
NA    1.662971380296   -7.717695598980   -0.056007216050
