17

 N   -1.977564454922   -0.317239487576    0.006032605218
 C   -0.767376388078    0.337966716100    0.009994229186
 N    0.466036026225   -0.260710978362    0.022032514091
 C    1.436459226281    0.629465163249    0.010160057118
 N    1.233382388868    1.991103296763    0.003324896776
 H    2.037209514119    2.611063836518   -0.078663125646
 N    2.761913980518    0.210790441569   -0.068187246117
 H    3.416450185850    0.742593665969    0.499453530613
 H    2.840719067909   -0.789909702366    0.093396091872
 C   -0.025891353449    2.677137000294    0.016278683453
 O   -0.053471722554    3.905310085071    0.012190555025
 C   -1.098676479425    1.703443611020    0.022479881393
 N   -2.469749781194    1.889774656333    0.022404696677
 C   -2.963273275705    0.651171642288    0.012074597012
 H   -4.020771188973    0.397025020456    0.009127952586
 H   -2.102661451453   -1.323822572808   -0.002626945813
NA    1.717987824110   -8.060451599968   -0.059594267275
