17

 N   -1.981751215239   -0.291155700181    0.006305580400
 C   -0.771563148395    0.364050503495    0.010267204368
 N    0.461849265908   -0.234627190967    0.022305489273
 C    1.432272465964    0.655548950644    0.010433032300
 N    1.229195628551    2.017187084158    0.003597871958
 H    2.033022753802    2.637147623913   -0.078390150464
 N    2.757727220201    0.236874228964   -0.067914270935
 H    3.412263425533    0.768677453364    0.499726505795
 H    2.836532307592   -0.763825914971    0.093669067054
 C   -0.030078113766    2.703220787689    0.016551658635
 O   -0.057658482871    3.931393872466    0.012463530207
 C   -1.102863239742    1.729527398415    0.022752856575
 N   -2.473936541511    1.915858443728    0.022677671859
 C   -2.967460036022    0.677255429683    0.012347572194
 H   -4.024957949290    0.423108807851    0.009400927768
 H   -2.106848211770   -1.297738785413   -0.002353970631
NA    1.745496046017   -8.231829600462   -0.061387792888
