17

 N   -1.983844595398   -0.278113806484    0.006442067990
 C   -0.773656528554    0.377092397192    0.010403691958
 N    0.459755885749   -0.221585297270    0.022441976863
 C    1.430179085805    0.668590844341    0.010569519890
 N    1.227102248392    2.030228977855    0.003734359548
 H    2.030929373643    2.650189517610   -0.078253662874
 N    2.755633840042    0.249916122661   -0.067777783345
 H    3.410170045374    0.781719347061    0.499862993385
 H    2.834438927433   -0.750784021274    0.093805554644
 C   -0.032171493925    2.716262681386    0.016688146225
 O   -0.059751863030    3.944435766163    0.012600017797
 C   -1.104956619901    1.742569292112    0.022889344165
 N   -2.476029921670    1.928900337425    0.022814159449
 C   -2.969553416181    0.690297323380    0.012484059784
 H   -4.027051329449    0.436150701548    0.009537415358
 H   -2.108941591929   -1.284696891716   -0.002217483041
NA    1.759250156970   -8.317518600709   -0.062284555694
