17

 N   -1.988031355716   -0.252030019089    0.006715043172
 C   -0.777843288872    0.403176184587    0.010676667140
 N    0.455569125431   -0.195501509875    0.022714952045
 C    1.425992325487    0.694674631736    0.010842495072
 N    1.222915488074    2.056312765250    0.004007334730
 H    2.026742613325    2.676273305005   -0.077980687692
 N    2.751447079724    0.275999910056   -0.067504808163
 H    3.405983285056    0.807803134456    0.500135968567
 H    2.830252167115   -0.724700233879    0.094078529826
 C   -0.036358254243    2.742346468781    0.016961121407
 O   -0.063938623348    3.970519553558    0.012872992979
 C   -1.109143380219    1.768653079507    0.023162319347
 N   -2.480216681988    1.954984124820    0.023087134631
 C   -2.973740176499    0.716381110775    0.012757034966
 H   -4.031238089767    0.462234488943    0.009810390540
 H   -2.113128352247   -1.258613104321   -0.001944507859
NA    1.786758378877   -8.488896601204   -0.064078081307
