17

 N   -1.996404876352   -0.199862444300    0.007260993534
 C   -0.786216809508    0.455343759376    0.011222617502
 N    0.447195604795   -0.143333935086    0.023260902407
 C    1.417618804851    0.746842206525    0.011388445434
 N    1.214541967438    2.108480340039    0.004553285092
 H    2.018369092689    2.728440879794   -0.077434737330
 N    2.743073559088    0.328167484845   -0.066958857801
 H    3.397609764420    0.859970709245    0.500681918929
 H    2.821878646479   -0.672532659090    0.094624480188
 C   -0.044731774879    2.794514043570    0.017507071769
 O   -0.072312143984    4.022687128347    0.013418943341
 C   -1.117516900855    1.820820654296    0.023708269709
 N   -2.488590202624    2.007151699609    0.023633084993
 C   -2.982113697135    0.768548685564    0.013302985328
 H   -4.039611610403    0.514402063732    0.010356340902
 H   -2.121501872883   -1.206445529532   -0.001398557497
NA    1.841774822691   -8.831652602192   -0.067665132532
