17

 N   -2.000591636670   -0.173778656906    0.007533968716
 C   -0.790403569826    0.481427546770    0.011495592684
 N    0.443008844477   -0.117250147692    0.023533877589
 C    1.413432044533    0.772925993919    0.011661420616
 N    1.210355207120    2.134564127433    0.004826260274
 H    2.014182332371    2.754524667188   -0.077161762148
 N    2.738886798770    0.354251272239   -0.066685882619
 H    3.393423004102    0.886054496639    0.500954894111
 H    2.817691886161   -0.646448871696    0.094897455370
 C   -0.048918535197    2.820597830964    0.017780046951
 O   -0.076498904302    4.048770915741    0.013691918523
 C   -1.121703661173    1.846904441690    0.023981244891
 N   -2.492776962942    2.033235487003    0.023906060175
 C   -2.986300457453    0.794632472958    0.013575960510
 H   -4.043798370721    0.540485851126    0.010629316084
 H   -2.125688633201   -1.180361742138   -0.001125582315
NA    1.869283044598   -9.003030602686   -0.069458658145
