17

 N   -2.002685016829   -0.160736763208    0.007670456306
 C   -0.792496949985    0.494469440468    0.011632080274
 N    0.440915464318   -0.104208253994    0.023670365179
 C    1.411338664374    0.785967887617    0.011797908206
 N    1.208261826961    2.147606021131    0.004962747864
 H    2.012088952212    2.767566560886   -0.077025274558
 N    2.736793418611    0.367293165937   -0.066549395029
 H    3.391329623943    0.899096390337    0.501091381701
 H    2.815598506002   -0.633406977998    0.095033942960
 C   -0.051011915356    2.833639724662    0.017916534541
 O   -0.078592284461    4.061812809439    0.013828406113
 C   -1.123797041332    1.859946335388    0.024117732481
 N   -2.494870343101    2.046277380701    0.024042547765
 C   -2.988393837612    0.807674366656    0.013712448100
 H   -4.045891750880    0.553527744824    0.010765803674
 H   -2.127782013360   -1.167319848440   -0.000989094725
NA    1.883037155552   -9.088719602933   -0.070355420951
