17

 N   -2.008965157306   -0.121611082116    0.008079919078
 C   -0.798777090462    0.533595121560    0.012041543046
 N    0.434635323841   -0.065082572902    0.024079827951
 C    1.405058523897    0.825093568709    0.012207370978
 N    1.201981686484    2.186731702223    0.005372210636
 H    2.005808811735    2.806692241978   -0.076615811786
 N    2.730513278134    0.406418847029   -0.066139932257
 H    3.385049483466    0.938222071429    0.501500844473
 H    2.809318365525   -0.594281296906    0.095443405732
 C   -0.057292055833    2.872765405754    0.018325997313
 O   -0.084872424938    4.100938490531    0.014237868885
 C   -1.130077181809    1.899072016480    0.024527195253
 N   -2.501150483578    2.085403061793    0.024452010537
 C   -2.994673978089    0.846800047748    0.014121910872
 H   -4.052171891357    0.592653425916    0.011175266446
 H   -2.134062153837   -1.128194167348   -0.000579631953
NA    1.924299488413   -9.345786603675   -0.073045709370
