17

 N   -2.015245297782   -0.082485401025    0.008489381851
 C   -0.805057230938    0.572720802651    0.012451005819
 N    0.428355183365   -0.025956891811    0.024489290724
 C    1.398778383421    0.864219249800    0.012616833751
 N    1.195701546008    2.225857383314    0.005781673409
 H    1.999528671259    2.845817923069   -0.076206349013
 N    2.724233137658    0.445544528120   -0.065730469484
 H    3.378769342990    0.977347752520    0.501910307246
 H    2.803038225049   -0.555155615815    0.095852868505
 C   -0.063572196309    2.911891086845    0.018735460086
 O   -0.091152565414    4.140064171622    0.014647331658
 C   -1.136357322285    1.938197697571    0.024936658026
 N   -2.507430624054    2.124528742884    0.024861473310
 C   -3.000954118565    0.885925728839    0.014531373645
 H   -4.058452031833    0.631779107007    0.011584729219
 H   -2.140342294313   -1.089068486257   -0.000170169180
NA    1.965561821273   -9.602853604416   -0.075735997789
