10

 C    1.017209217230   -1.474512422597    0.715653924949
 C   -0.082089782770   -0.425652422597    0.715653924949
 N   -1.361697782770   -0.929441422597    0.715653924949
 H   -2.136370782770   -0.278857422597    0.715653924949
 H   -1.548368782770   -1.921492422597    0.715653924949
 O    0.139502217230    0.787349577403    0.715653924949
 H    1.987874217230   -0.965367422597    0.715653924949
 H    0.937571217230   -2.115517422597    1.607900924949
 H    0.937571217230   -2.115517422597   -0.176593075051
 K    0.139502217230    0.787349577403   -1.084346075051
