10

 C    1.017209217230   -1.474512422597    3.975855138604
 C   -0.082089782770   -0.425652422597    3.975855138604
 N   -1.361697782770   -0.929441422597    3.975855138604
 H   -2.136370782770   -0.278857422597    3.975855138604
 H   -1.548368782770   -1.921492422597    3.975855138604
 O    0.139502217230    0.787349577403    3.975855138604
 H    1.987874217230   -0.965367422597    3.975855138604
 H    0.937571217230   -2.115517422597    4.868102138604
 H    0.937571217230   -2.115517422597    3.083608138604
 K    0.139502217230    0.787349577403   -6.024144861397
