10

 C    1.017209217230   -1.474512422597    2.186720326232
 C   -0.082089782770   -0.425652422597    2.186720326232
 N   -1.361697782770   -0.929441422597    2.186720326232
 H   -2.136370782770   -0.278857422597    2.186720326232
 H   -1.548368782770   -1.921492422597    2.186720326232
 O    0.139502217230    0.787349577403    2.186720326232
 H    1.987874217230   -0.965367422597    2.186720326232
 H    0.937571217230   -2.115517422597    3.078967326232
 H    0.937571217230   -2.115517422597    1.294473326232
 K    0.139502217230    0.787349577403   -3.313279673768
