16

 N   -2.148621196759    0.004127236775   -0.013113498751
 C   -0.916495464492   -0.626163043233   -0.012158538443
 N   -0.646354528366   -1.947048518201   -0.015622727390
 C    0.681774640097   -2.165242410951   -0.000055298727
 H    0.995582923067   -3.211921143441    0.003324271964
 N    1.694124083138   -1.257261453810    0.013915971548
 C    1.381907339231    0.053559629439    0.009269567648
 N    2.389534294033    0.978058266744   -0.032552269283
 H    3.320985831420    0.647528157992    0.189905664850
 H    2.156796788006    1.938029021783    0.192257976157
 C    0.016406498357    0.430253483306    0.000498479933
 N   -0.607122812834    1.669219183936    0.010376688951
 C   -1.907048299991    1.361139795575    0.001921835793
 H   -2.717101828778    2.087720596677    0.005969973656
 H   -3.052410873929   -0.456129887059   -0.020716554684
LI   -0.189827434995    2.577922267747    0.021479531256
