16

 N   -2.150681966471   -0.000360298653   -0.013168328980
 C   -0.918556234204   -0.630650578661   -0.012213368672
 N   -0.648415298078   -1.951536053629   -0.015677557619
 C    0.679713870385   -2.169729946379   -0.000110128956
 H    0.993522153355   -3.216408678869    0.003269441735
 N    1.692063313426   -1.261748989238    0.013861141319
 C    1.379846569519    0.049072094011    0.009214737419
 N    2.387473524321    0.973570731316   -0.032607099512
 H    3.318925061708    0.643040622564    0.189850834621
 H    2.154736018294    1.933541486355    0.192203145928
 C    0.014345728645    0.425765947878    0.000443649704
 N   -0.609183582546    1.664731648508    0.010321858722
 C   -1.909109069703    1.356652260147    0.001867005564
 H   -2.719162598490    2.083233061249    0.005915143427
 H   -3.054471643641   -0.460617422487   -0.020771384913
LI   -0.150158666923    2.664305040699    0.022534985257
