16

 N   -2.160985815030   -0.022797975795   -0.013442480126
 C   -0.928860082763   -0.653088255803   -0.012487519818
 N   -0.658719146637   -1.973973730771   -0.015951708765
 C    0.669410021826   -2.192167623521   -0.000384280102
 H    0.983218304796   -3.238846356011    0.002995290589
 N    1.681759464867   -1.284186666380    0.013586990173
 C    1.369542720960    0.026634416869    0.008940586273
 N    2.377169675762    0.951133054174   -0.032881250658
 H    3.308621213149    0.620602945422    0.189576683475
 H    2.144432169735    1.911103809213    0.191928994782
 C    0.004041880086    0.403328270736    0.000169498558
 N   -0.619487431105    1.642293971366    0.010047707576
 C   -1.919412918262    1.334214583005    0.001592854418
 H   -2.729466447049    2.060795384107    0.005640992281
 H   -3.064775492200   -0.483055099629   -0.021045536059
LI    0.048185173438    3.096218905463    0.027812255265
