16

 N   -2.167168124166   -0.036260582080   -0.013606970813
 C   -0.935042391899   -0.666550862088   -0.012652010505
 N   -0.664901455773   -1.987436337056   -0.016116199452
 C    0.663227712690   -2.205630229806   -0.000548770789
 H    0.977035995660   -3.252308962296    0.002830799902
 N    1.675577155731   -1.297649272665    0.013422499486
 C    1.363360411824    0.013171810584    0.008776095586
 N    2.370987366626    0.937670447889   -0.033045741345
 H    3.302438904013    0.607140339137    0.189412192788
 H    2.138249860599    1.897641202928    0.191764504095
 C   -0.002140429050    0.389865664451    0.000005007871
 N   -0.625669740241    1.628831365081    0.009883216889
 C   -1.925595227398    1.320751976720    0.001428363731
 H   -2.735648756185    2.047332777822    0.005476501594
 H   -3.070957801336   -0.496517705914   -0.021210026746
LI    0.167191477654    3.355367224321    0.030978617269
