16

 N   -2.169228893877   -0.040748117509   -0.013661801042
 C   -0.937103161610   -0.671038397517   -0.012706840734
 N   -0.666962225484   -1.991923872485   -0.016171029681
 C    0.661166942979   -2.210117765235   -0.000603601018
 H    0.974975225949   -3.256796497725    0.002775969673
 N    1.673516386020   -1.302136808094    0.013367669257
 C    1.361299642113    0.008684275155    0.008721265357
 N    2.368926596915    0.933182912460   -0.033100571574
 H    3.300378134302    0.602652803708    0.189357362559
 H    2.136189090888    1.893153667499    0.191709673866
 C   -0.004201198761    0.385378129022   -0.000049822358
 N   -0.627730509952    1.624343829652    0.009828386660
 C   -1.927655997109    1.316264441291    0.001373533502
 H   -2.737709525896    2.042845242393    0.005421671365
 H   -3.073018571047   -0.501005241343   -0.021264856975
LI    0.206860245726    3.441749997273    0.032034071271
