16

 N   -2.173350433301   -0.049723188366   -0.013771461500
 C   -0.941224701034   -0.680013468374   -0.012816501192
 N   -0.671083764908   -2.000898943342   -0.016280690139
 C    0.657045403555   -2.219092836092   -0.000713261476
 H    0.970853686525   -3.265771568582    0.002666309215
 N    1.669394846596   -1.311111878951    0.013258008799
 C    1.357178102689   -0.000290795702    0.008611604899
 N    2.364805057491    0.924207841603   -0.033210232032
 H    3.296256594878    0.593677732851    0.189247702101
 H    2.132067551464    1.884178596642    0.191600013408
 C   -0.008322738185    0.376403058165   -0.000159482816
 N   -0.631852049376    1.615368758795    0.009718726202
 C   -1.931777536533    1.307289370434    0.001263873044
 H   -2.741831065320    2.033870171536    0.005312010907
 H   -3.077140110471   -0.509980312200   -0.021374517433
LI    0.286197781870    3.614515543178    0.034144979274
