16

 N   -2.179532742436   -0.063185794651   -0.013935952187
 C   -0.947407010169   -0.693476074659   -0.012980991879
 N   -0.677266074043   -2.014361549627   -0.016445180826
 C    0.650863094420   -2.232555442377   -0.000877752163
 H    0.964671377390   -3.279234174867    0.002501818528
 N    1.663212537461   -1.324574485236    0.013093518112
 C    1.350995793554   -0.013753401987    0.008447114212
 N    2.358622748356    0.910745235318   -0.033374722719
 H    3.290074285743    0.580215126566    0.189083211414
 H    2.125885242329    1.870715990357    0.191435522721
 C   -0.014505047320    0.362940451880   -0.000323973503
 N   -0.638034358511    1.601906152510    0.009554235515
 C   -1.937959845668    1.293826764149    0.001099382357
 H   -2.748013374455    2.020407565251    0.005147520220
 H   -3.083322419606   -0.523442918485   -0.021539008120
LI    0.405204086087    3.873663862036    0.037311341278
