16

 N   -2.183654281860   -0.072160865508   -0.014045612645
 C   -0.951528549593   -0.702451145516   -0.013090652337
 N   -0.681387613467   -2.023336620484   -0.016554841284
 C    0.646741554996   -2.241530513234   -0.000987412621
 H    0.960549837966   -3.288209245724    0.002392158070
 N    1.659090998037   -1.333549556093    0.012983857654
 C    1.346874254130   -0.022728472844    0.008337453754
 N    2.354501208932    0.901770164461   -0.033484383177
 H    3.285952746319    0.571240055709    0.188973550956
 H    2.121763702905    1.861740919500    0.191325862263
 C   -0.018626586744    0.353965381023   -0.000433633961
 N   -0.642155897935    1.592931081653    0.009444575057
 C   -1.942081385092    1.284851693292    0.000989721899
 H   -2.752134913879    2.011432494394    0.005037859762
 H   -3.087443959030   -0.532417989342   -0.021648668578
LI    0.484541622231    4.046429407942    0.039422249281
