16

 N   -2.187775821284   -0.081135936364   -0.014155273103
 C   -0.955650089017   -0.711426216372   -0.013200312795
 N   -0.685509152891   -2.032311691340   -0.016664501742
 C    0.642620015572   -2.250505584090   -0.001097073079
 H    0.956428298542   -3.297184316580    0.002282497612
 N    1.654969458613   -1.342524626949    0.012874197196
 C    1.342752714706   -0.031703543700    0.008227793296
 N    2.350379669508    0.892795093605   -0.033594043635
 H    3.281831206895    0.562264984853    0.188863890498
 H    2.117642163481    1.852765848644    0.191216201805
 C   -0.022748126168    0.344990310167   -0.000543294419
 N   -0.646277437359    1.583956010797    0.009334914599
 C   -1.946202924516    1.275876622436    0.000880061441
 H   -2.756256453303    2.002457423538    0.004928199304
 H   -3.091565498454   -0.541393060198   -0.021758329036
LI    0.563879158375    4.219194953847    0.041533157284
