16

 N   -2.189836590996   -0.085623471793   -0.014210103332
 C   -0.957710858729   -0.715913751801   -0.013255143024
 N   -0.687569922603   -2.036799226769   -0.016719331971
 C    0.640559245860   -2.254993119519   -0.001151903308
 H    0.954367528830   -3.301671852009    0.002227667383
 N    1.652908688901   -1.347012162378    0.012819366967
 C    1.340691944994   -0.036191079129    0.008172963067
 N    2.348318899796    0.888307558176   -0.033648873864
 H    3.279770437183    0.557777449424    0.188809060269
 H    2.115581393769    1.848278313215    0.191161371576
 C   -0.024808895880    0.340502774738   -0.000598124648
 N   -0.648338207071    1.579468475368    0.009280084370
 C   -1.948263694228    1.271389087007    0.000825231212
 H   -2.758317223015    1.997969888109    0.004873369075
 H   -3.093626268166   -0.545880595627   -0.021813159265
LI    0.603547926447    4.305577726800    0.042588611286
