16

 N   -2.191897360707   -0.090111007221   -0.014264933561
 C   -0.959771628440   -0.720401287229   -0.013309973253
 N   -0.689630692314   -2.041286762197   -0.016774162200
 C    0.638498476149   -2.259480654947   -0.001206733537
 H    0.952306759119   -3.306159387437    0.002172837154
 N    1.650847919190   -1.351499697806    0.012764536738
 C    1.338631175283   -0.040678614557    0.008118132838
 N    2.346258130085    0.883820022748   -0.033703704093
 H    3.277709667472    0.553289913996    0.188754230040
 H    2.113520624058    1.843790777787    0.191106541347
 C   -0.026869665591    0.336015239310   -0.000652954877
 N   -0.650398976782    1.574980939940    0.009225254141
 C   -1.950324463939    1.266901551579    0.000770400983
 H   -2.760377992726    1.993482352681    0.004818538846
 H   -3.095687037877   -0.550368131055   -0.021867989494
LI    0.643216694519    4.391960499752    0.043644065287
