16

 N   -2.193958130419   -0.094598542650   -0.014319763790
 C   -0.961832398152   -0.724888822658   -0.013364803482
 N   -0.691691462026   -2.045774297626   -0.016828992429
 C    0.636437706437   -2.263968190376   -0.001261563766
 H    0.950245989407   -3.310646922866    0.002118006925
 N    1.648787149478   -1.355987233235    0.012709706509
 C    1.336570405571   -0.045166149986    0.008063302609
 N    2.344197360373    0.879332487319   -0.033758534322
 H    3.275648897760    0.548802378567    0.188699399811
 H    2.111459854346    1.839303242358    0.191051711118
 C   -0.028930435303    0.331527703881   -0.000707785106
 N   -0.652459746494    1.570493404511    0.009170423912
 C   -1.952385233651    1.262414016150    0.000715570754
 H   -2.762438762438    1.988994817252    0.004763708617
 H   -3.097747807589   -0.554855666484   -0.021922819723
LI    0.682885462591    4.478343272705    0.044699519289
