16

 N   -2.196018900131   -0.099086078078   -0.014374594019
 C   -0.963893167864   -0.729376358086   -0.013419633711
 N   -0.693752231738   -2.050261833054   -0.016883822658
 C    0.634376936725   -2.268455725804   -0.001316393995
 H    0.948185219695   -3.315134458294    0.002063176696
 N    1.646726379766   -1.360474768663    0.012654876280
 C    1.334509635859   -0.049653685414    0.008008472380
 N    2.342136590661    0.874844951891   -0.033813364551
 H    3.273588128048    0.544314843139    0.188644569582
 H    2.109399084634    1.834815706930    0.190996880889
 C   -0.030991205015    0.327040168453   -0.000762615335
 N   -0.654520516206    1.566005869083    0.009115593683
 C   -1.954446003363    1.257926480722    0.000660740525
 H   -2.764499532150    1.984507281824    0.004708878388
 H   -3.099808577301   -0.559343201912   -0.021977649952
LI    0.722554230663    4.564726045658    0.045754973290
