16

 N   -2.212505057826   -0.134986361505   -0.014813235851
 C   -0.980379325559   -0.765276641513   -0.013858275543
 N   -0.710238389433   -2.086162116481   -0.017322464490
 C    0.617890779030   -2.304356009231   -0.001755035827
 H    0.931699062000   -3.351034741721    0.001624534864
 N    1.630240222071   -1.396375052090    0.012216234448
 C    1.318023478164   -0.085553968841    0.007569830548
 N    2.325650432966    0.838944668464   -0.034252006383
 H    3.257101970353    0.508414559712    0.188205927750
 H    2.092912926939    1.798915423503    0.190558239057
 C   -0.047477362710    0.291139885026   -0.001201257167
 N   -0.671006673901    1.530105585656    0.008676951851
 C   -1.970932161058    1.222026197295    0.000222098693
 H   -2.780985689845    1.948606998397    0.004270236556
 H   -3.116294734996   -0.595243485339   -0.022416291784
LI    1.039904375240    5.255788229279    0.054198605302
