16

 N   -2.214565827538   -0.139473896934   -0.014868066080
 C   -0.982440095271   -0.769764176942   -0.013913105772
 N   -0.712299159145   -2.090649651910   -0.017377294719
 C    0.615830009318   -2.308843544660   -0.001809866056
 H    0.929638292288   -3.355522277150    0.001569704635
 N    1.628179452359   -1.400862587519    0.012161404219
 C    1.315962708452   -0.090041504270    0.007515000319
 N    2.323589663254    0.834457133035   -0.034306836612
 H    3.255041200641    0.503927024283    0.188151097521
 H    2.090852157227    1.794427888074    0.190503408828
 C   -0.049538132422    0.286652349597   -0.001256087396
 N   -0.673067443613    1.525618050227    0.008622121622
 C   -1.972992930770    1.217538661866    0.000167268464
 H   -2.783046459557    1.944119462968    0.004215406327
 H   -3.118355504708   -0.599731020768   -0.022471122013
LI    1.079573143312    5.342171002232    0.055254059304
