16

 N   -2.220748136673   -0.152936503219   -0.015032556767
 C   -0.988622404406   -0.783226783227   -0.014077596459
 N   -0.718481468280   -2.104112258195   -0.017541785406
 C    0.609647700183   -2.322306150945   -0.001974356743
 H    0.923455983153   -3.368984883435    0.001405213948
 N    1.621997143224   -1.414325193804    0.011996913532
 C    1.309780399317   -0.103504110555    0.007350509632
 N    2.317407354119    0.820994526750   -0.034471327299
 H    3.248858891506    0.490464417998    0.187986606834
 H    2.084669848092    1.780965281789    0.190338918141
 C   -0.055720441557    0.273189743312   -0.001420578083
 N   -0.679249752748    1.512155443942    0.008457630935
 C   -1.979175239905    1.204076055581    0.000002777777
 H   -2.789228768692    1.930656856683    0.004050915640
 H   -3.124537813843   -0.613193627053   -0.022635612700
LI    1.198579447529    5.601319321090    0.058420421308
