16

 N   -2.226930445808   -0.166399109504   -0.015197047454
 C   -0.994804713541   -0.796689389512   -0.014242087146
 N   -0.724663777415   -2.117574864480   -0.017706276093
 C    0.603465391048   -2.335768757230   -0.002138847430
 H    0.917273674018   -3.382447489720    0.001240723261
 N    1.615814834089   -1.427787800089    0.011832422845
 C    1.303598090182   -0.116966716840    0.007186018945
 N    2.311225044984    0.807531920465   -0.034635817986
 H    3.242676582371    0.477001811713    0.187822116147
 H    2.078487538957    1.767502675504    0.190174427454
 C   -0.061902750692    0.259727137027   -0.001585068770
 N   -0.685432061883    1.498692837657    0.008293140248
 C   -1.985357549040    1.190613449296   -0.000161712910
 H   -2.795411077827    1.917194250398    0.003886424953
 H   -3.130720122978   -0.626656233338   -0.022800103387
LI    1.317585751745    5.860467639948    0.061586783313
