16

 N   -2.228991215520   -0.170886644932   -0.015251877683
 C   -0.996865483253   -0.801176924940   -0.014296917375
 N   -0.726724547127   -2.122062399908   -0.017761106322
 C    0.601404621336   -2.340256292658   -0.002193677659
 H    0.915212904306   -3.386935025148    0.001185893032
 N    1.613754064377   -1.432275335517    0.011777592616
 C    1.301537320470   -0.121454252268    0.007131188716
 N    2.309164275272    0.803044385037   -0.034690648215
 H    3.240615812659    0.472514276285    0.187767285918
 H    2.076426769245    1.763015140076    0.190119597225
 C   -0.063963520404    0.255239601599   -0.001639898999
 N   -0.687492831595    1.494205302229    0.008238310019
 C   -1.987418318752    1.186125913868   -0.000216543139
 H   -2.797471847539    1.912706714970    0.003831594724
 H   -3.132780892690   -0.631143768766   -0.022854933616
LI    1.357254519817    5.946850412900    0.062642237314
