16

 N   -2.233112754944   -0.179861715789   -0.015361538141
 C   -1.000987022677   -0.810151995797   -0.014406577833
 N   -0.730846086551   -2.131037470765   -0.017870766780
 C    0.597283081912   -2.349231363515   -0.002303338117
 H    0.911091364882   -3.395910096005    0.001076232574
 N    1.609632524953   -1.441250406374    0.011667932158
 C    1.297415781046   -0.130429323125    0.007021528258
 N    2.305042735848    0.794069314180   -0.034800308673
 H    3.236494273235    0.463539205428    0.187657625460
 H    2.072305229821    1.754040069219    0.190009936767
 C   -0.068085059828    0.246264530742   -0.001749559457
 N   -0.691614371019    1.485230231372    0.008128649561
 C   -1.991539858176    1.177150843011   -0.000326203597
 H   -2.801593386963    1.903731644113    0.003721934266
 H   -3.136902432114   -0.640118839623   -0.022964594074
LI    1.436592055961    6.119615958806    0.064753145317
