16

 N   -2.237234294368   -0.188836786646   -0.015471198599
 C   -1.005108562101   -0.819127066654   -0.014516238291
 N   -0.734967625975   -2.140012541622   -0.017980427238
 C    0.593161542488   -2.358206434372   -0.002412998575
 H    0.906969825458   -3.404885166862    0.000966572116
 N    1.605510985529   -1.450225477231    0.011558271700
 C    1.293294241622   -0.139404393982    0.006911867800
 N    2.300921196424    0.785094243323   -0.034909969131
 H    3.232372733811    0.454564134571    0.187547965002
 H    2.068183690397    1.745064998362    0.189900276309
 C   -0.072206599252    0.237289459885   -0.001859219915
 N   -0.695735910443    1.476255160515    0.008018989103
 C   -1.995661397600    1.168175772154   -0.000435864055
 H   -2.805714926387    1.894756573256    0.003612273808
 H   -3.141023971538   -0.649093910480   -0.023074254532
LI    1.515929592105    6.292381504711    0.066864053320
