16

 N   -2.239295064079   -0.193324322074   -0.015526028829
 C   -1.007169331812   -0.823614602082   -0.014571068521
 N   -0.737028395686   -2.144500077050   -0.018035257468
 C    0.591100772777   -2.362693969800   -0.002467828805
 H    0.904909055747   -3.409372702290    0.000911741886
 N    1.603450215818   -1.454713012659    0.011503441470
 C    1.291233471911   -0.143891929410    0.006857037570
 N    2.298860426713    0.780606707895   -0.034964799361
 H    3.230311964100    0.450076599143    0.187493134772
 H    2.066122920686    1.740577462934    0.189845446079
 C   -0.074267368963    0.232801924457   -0.001914050145
 N   -0.697796680154    1.471767625087    0.007964158873
 C   -1.997722167311    1.163688236726   -0.000490694285
 H   -2.807775696098    1.890269037828    0.003557443578
 H   -3.143084741249   -0.653581445908   -0.023129084762
LI    1.555598360178    6.378764277664    0.067919507322
