16

 N   -2.253720452062   -0.224737070073   -0.015909840432
 C   -1.021594719795   -0.855027350081   -0.014954880124
 N   -0.751453783669   -2.175912825049   -0.018419069071
 C    0.576675384794   -2.394106717799   -0.002851640408
 H    0.890483667764   -3.440785450289    0.000527930283
 N    1.589024827835   -1.486125760658    0.011119629867
 C    1.276808083928   -0.175304677409    0.006473225967
 N    2.284435038730    0.749193959896   -0.035348610964
 H    3.215886576117    0.418663851144    0.187109323169
 H    2.051697532703    1.709164714935    0.189461634476
 C   -0.088692756946    0.201389176458   -0.002297861748
 N   -0.712222068137    1.440354877088    0.007580347270
 C   -2.012147555294    1.132275488727   -0.000874505888
 H   -2.822201084081    1.858856289829    0.003173631975
 H   -3.157510129232   -0.684994193907   -0.023512896365
LI    1.833279736682    6.983443688332    0.075307685332
