16

 N   -2.259902761198   -0.238199676358   -0.016074331119
 C   -1.027777028931   -0.868489956366   -0.015119370811
 N   -0.757636092805   -2.189375431334   -0.018583559758
 C    0.570493075658   -2.407569324084   -0.003016131095
 H    0.884301358628   -3.454248056574    0.000363439596
 N    1.582842518699   -1.499588366943    0.010955139180
 C    1.270625774792   -0.188767283694    0.006308735280
 N    2.278252729594    0.735731353611   -0.035513101651
 H    3.209704266981    0.405201244859    0.186944832482
 H    2.045515223567    1.695702108650    0.189297143789
 C   -0.094875066082    0.187926570173   -0.002462352435
 N   -0.718404377273    1.426892270803    0.007415856583
 C   -2.018329864430    1.118812882442   -0.001038996575
 H   -2.828383393217    1.845393683544    0.003009141288
 H   -3.163692438368   -0.698456800192   -0.023677387052
LI    1.952286040899    7.242592007190    0.078474047337
