16

 N   -2.274328149180   -0.269612424357   -0.016458142722
 C   -1.042202416913   -0.899902704365   -0.015503182414
 N   -0.772061480787   -2.220788179333   -0.018967371361
 C    0.556067687676   -2.438982072083   -0.003399942698
 H    0.869875970646   -3.485660804573   -0.000020372007
 N    1.568417130717   -1.531001114942    0.010571327577
 C    1.256200386810   -0.220180031693    0.005924923677
 N    2.263827341612    0.704318605612   -0.035896913254
 H    3.195278878999    0.373788496860    0.186561020879
 H    2.031089835585    1.664289360651    0.188913332186
 C   -0.109300454064    0.156513822174   -0.002846164038
 N   -0.732829765255    1.395479522804    0.007032044980
 C   -2.032755252412    1.087400134443   -0.001422808178
 H   -2.842808781199    1.813980935545    0.002625329685
 H   -3.178117826350   -0.729869548191   -0.024061198655
LI    2.229967417403    7.847271417859    0.085862225347
