16

 N   -2.276388918892   -0.274099959785   -0.016512972951
 C   -1.044263186625   -0.904390239793   -0.015558012643
 N   -0.774122250499   -2.225275714761   -0.019022201590
 C    0.554006917964   -2.443469607511   -0.003454772927
 H    0.867815200934   -3.490148340001   -0.000075202236
 N    1.566356361005   -1.535488650370    0.010516497348
 C    1.254139617098   -0.224667567121    0.005870093448
 N    2.261766571900    0.699831070184   -0.035951743483
 H    3.193218109287    0.369300961432    0.186506190650
 H    2.029029065873    1.659801825223    0.188858501957
 C   -0.111361223776    0.152026286746   -0.002900994267
 N   -0.734890534967    1.390991987376    0.006977214751
 C   -2.034816022124    1.082912599015   -0.001477638407
 H   -2.844869550911    1.809493400117    0.002570499456
 H   -3.180178596062   -0.734357083619   -0.024116028884
LI    2.269636185475    7.933654190811    0.086917679349
