16

 N   -2.286692767451   -0.296537636927   -0.016787124096
 C   -1.054567035184   -0.926827916935   -0.015832163788
 N   -0.784426099058   -2.247713391903   -0.019296352735
 C    0.543703069405   -2.465907284653   -0.003728924072
 H    0.857511352375   -3.512586017143   -0.000349353381
 N    1.556052512446   -1.557926327512    0.010242346203
 C    1.243835768539   -0.247105244263    0.005595942303
 N    2.251462723341    0.677393393042   -0.036225894628
 H    3.182914260728    0.346863284290    0.186232039505
 H    2.018725217314    1.637364148081    0.188584350812
 C   -0.121665072335    0.129588609604   -0.003175145412
 N   -0.745194383526    1.368554310234    0.006703063606
 C   -2.045119870683    1.060474921873   -0.001751789552
 H   -2.855173399470    1.787055722975    0.002296348311
 H   -3.190482444621   -0.756794760761   -0.024390180029
LI    2.467980025836    8.365568055575    0.092194949356
