16

 N   -2.292875076587   -0.310000243212   -0.016951614783
 C   -1.060749344320   -0.940290523220   -0.015996654475
 N   -0.790608408194   -2.261175998188   -0.019460843422
 C    0.537520760269   -2.479369890938   -0.003893414759
 H    0.851329043239   -3.526048623428   -0.000513844068
 N    1.549870203310   -1.571388933797    0.010077855516
 C    1.237653459403   -0.260567850548    0.005431451616
 N    2.245280414205    0.663930786757   -0.036390385315
 H    3.176731951592    0.333400678005    0.186067548818
 H    2.012542908178    1.623901541796    0.188419860125
 C   -0.127847381471    0.116126003319   -0.003339636099
 N   -0.751376692662    1.355091703949    0.006538572919
 C   -2.051302179819    1.047012315588   -0.001916280239
 H   -2.861355708606    1.773593116690    0.002131857624
 H   -3.196664753757   -0.770257367046   -0.024554670716
LI    2.586986330052    8.624716374433    0.095361311361
