16

 N   -2.294935846299   -0.314487778641   -0.017006445012
 C   -1.062810114032   -0.944778058649   -0.016051484704
 N   -0.792669177906   -2.265663533617   -0.019515673651
 C    0.535459990557   -2.483857426367   -0.003948244988
 H    0.849268273527   -3.530536158857   -0.000568674297
 N    1.547809433598   -1.575876469226    0.010023025287
 C    1.235592689691   -0.265055385977    0.005376621387
 N    2.243219644493    0.659443251328   -0.036445215544
 H    3.174671181880    0.328913142576    0.186012718589
 H    2.010482138466    1.619414006367    0.188365029896
 C   -0.129908151183    0.111638467890   -0.003394466328
 N   -0.753437462374    1.350604168520    0.006483742690
 C   -2.053362949531    1.042524780159   -0.001971110468
 H   -2.863416478318    1.769105581261    0.002077027395
 H   -3.198725523469   -0.774744902475   -0.024609500945
LI    2.626655098124    8.711099147385    0.096416765362
