16

 N   -2.301118155434   -0.327950384926   -0.017170935699
 C   -1.068992423167   -0.958240664934   -0.016215975391
 N   -0.798851487041   -2.279126139902   -0.019680164338
 C    0.529277681422   -2.497320032652   -0.004112735675
 H    0.843085964392   -3.543998765142   -0.000733164984
 N    1.541627124463   -1.589339075511    0.009858534600
 C    1.229410380556   -0.278517992262    0.005212130700
 N    2.237037335358    0.645980645043   -0.036609706231
 H    3.168488872745    0.315450536291    0.185848227902
 H    2.004299829331    1.605951400082    0.188200539209
 C   -0.136090460318    0.098175861605   -0.003558957015
 N   -0.759619771509    1.337141562235    0.006319252003
 C   -2.059545258666    1.029062173874   -0.002135601155
 H   -2.869598787453    1.755642974976    0.001912536708
 H   -3.204907832604   -0.788207508760   -0.024773991632
LI    2.745661402341    8.970247466243    0.099583127367
