16

 N   -2.305239694858   -0.336925455783   -0.017280596157
 C   -1.073113962591   -0.967215735791   -0.016325635849
 N   -0.802973026465   -2.288101210759   -0.019789824796
 C    0.525156141998   -2.506295103509   -0.004222396133
 H    0.838964424968   -3.552973835999   -0.000842825442
 N    1.537505585039   -1.598314146368    0.009748874142
 C    1.225288841132   -0.287493063119    0.005102470242
 N    2.232915795934    0.637005574186   -0.036719366689
 H    3.164367333321    0.306475465434    0.185738567444
 H    2.000178289907    1.596976329225    0.188090878751
 C   -0.140211999742    0.089200790748   -0.003668617473
 N   -0.763741310933    1.328166491378    0.006209591545
 C   -2.063666798090    1.020087103017   -0.002245261613
 H   -2.873720326877    1.746667904119    0.001802876250
 H   -3.209029372028   -0.797182579617   -0.024883652090
LI    2.824998938485    9.143013012149    0.101694035370
