16

 N   -2.311422003993   -0.350388062068   -0.017445086844
 C   -1.079296271726   -0.980678342076   -0.016490126536
 N   -0.809155335600   -2.301563817044   -0.019954315483
 C    0.518973832863   -2.519757709794   -0.004386886820
 H    0.832782115833   -3.566436442284   -0.001007316129
 N    1.531323275904   -1.611776752653    0.009584383455
 C    1.219106531997   -0.300955669404    0.004937979555
 N    2.226733486799    0.623542967901   -0.036883857376
 H    3.158185024186    0.293012859149    0.185574076757
 H    1.993995980772    1.583513722940    0.187926388064
 C   -0.146394308877    0.075738184463   -0.003833108160
 N   -0.769923620068    1.314703885093    0.006045100858
 C   -2.069849107225    1.006624496732   -0.002409752300
 H   -2.879902636012    1.733205297834    0.001638385563
 H   -3.215211681163   -0.810645185902   -0.025048142777
LI    2.944005242701    9.402161331007    0.104860397374
