16

 N   -2.315543543417   -0.359363132925   -0.017554747302
 C   -1.083417811150   -0.989653412933   -0.016599786994
 N   -0.813276875024   -2.310538887901   -0.020063975941
 C    0.514852293439   -2.528732780651   -0.004496547278
 H    0.828660576409   -3.575411513141   -0.001116976587
 N    1.527201736480   -1.620751823510    0.009474722997
 C    1.214984992573   -0.309930740261    0.004828319097
 N    2.222611947375    0.614567897044   -0.036993517834
 H    3.154063484762    0.284037788292    0.185464416299
 H    1.989874441348    1.574538652083    0.187816727606
 C   -0.150515848301    0.066763113606   -0.003942768618
 N   -0.774045159492    1.305728814236    0.005935440400
 C   -2.073970646649    0.997649425875   -0.002519412758
 H   -2.884024175436    1.724230226977    0.001528725105
 H   -3.219333220587   -0.819620256759   -0.025157803235
LI    3.023342778845    9.574926876912    0.106971305377
