16

 N   -2.319665082841   -0.368338203782   -0.017664407760
 C   -1.087539350574   -0.998628483790   -0.016709447452
 N   -0.817398414448   -2.319513958758   -0.020173636399
 C    0.510730754015   -2.537707851508   -0.004606207736
 H    0.824539036985   -3.584386583998   -0.001226637045
 N    1.523080197056   -1.629726894367    0.009365062539
 C    1.210863453149   -0.318905811118    0.004718658639
 N    2.218490407951    0.605592826187   -0.037103178292
 H    3.149941945338    0.275062717435    0.185354755841
 H    1.985752901924    1.565563581226    0.187707067148
 C   -0.154637387725    0.057788042749   -0.004052429076
 N   -0.778166698916    1.296753743379    0.005825779942
 C   -2.078092186073    0.988674355018   -0.002629073216
 H   -2.888145714860    1.715255156120    0.001419064647
 H   -3.223454760011   -0.828595327616   -0.025267463693
LI    3.102680314989    9.747692422817    0.109082213380
