16

 N   -2.321725852552   -0.372825739210   -0.017719237989
 C   -1.089600120285   -1.003116019218   -0.016764277681
 N   -0.819459184159   -2.324001494186   -0.020228466628
 C    0.508669984304   -2.542195386936   -0.004661037965
 H    0.822478267274   -3.588874119426   -0.001281467274
 N    1.521019427345   -1.634214429795    0.009310232310
 C    1.208802683438   -0.323393346546    0.004663828410
 N    2.216429638240    0.601105290759   -0.037158008521
 H    3.147881175627    0.270575182007    0.185299925612
 H    1.983692132213    1.561076045798    0.187652236919
 C   -0.156698157436    0.053300507321   -0.004107259305
 N   -0.780227468627    1.292266207951    0.005770949713
 C   -2.080152955784    0.984186819590   -0.002683903445
 H   -2.890206484571    1.710767620692    0.001364234418
 H   -3.225515529722   -0.833082863044   -0.025322293922
LI    3.142349083062    9.834075195770    0.110137667382
