16

 N   -2.323786622264   -0.377313274638   -0.017774068219
 C   -1.091660889997   -1.007603554646   -0.016819107911
 N   -0.821519953871   -2.328489029614   -0.020283296858
 C    0.506609214592   -2.546682922364   -0.004715868195
 H    0.820417497562   -3.593361654854   -0.001336297504
 N    1.518958657633   -1.638701965223    0.009255402080
 C    1.206741913726   -0.327880881974    0.004608998180
 N    2.214368868528    0.596617755331   -0.037212838751
 H    3.145820405915    0.266087646579    0.185245095382
 H    1.981631362501    1.556588510370    0.187597406689
 C   -0.158758927148    0.048812971893   -0.004162089535
 N   -0.782288238339    1.287778672523    0.005716119483
 C   -2.082213725496    0.979699284162   -0.002738733675
 H   -2.892267254283    1.706280085264    0.001309404188
 H   -3.227576299434   -0.837570398472   -0.025377124152
LI    3.182017851134    9.920457968723    0.111193121383
