16

 N   -2.327908161688   -0.386288345495   -0.017883728677
 C   -1.095782429421   -1.016578625503   -0.016928768369
 N   -0.825641493295   -2.337464100471   -0.020392957316
 C    0.502487675168   -2.555657993221   -0.004825528653
 H    0.816295958138   -3.602336725711   -0.001445957962
 N    1.514837118209   -1.647677036080    0.009145741622
 C    1.202620374302   -0.336855952831    0.004499337722
 N    2.210247329104    0.587642684474   -0.037322499209
 H    3.141698866491    0.257112575722    0.185135434924
 H    1.977509823077    1.547613439513    0.187487746231
 C   -0.162880466572    0.039837901036   -0.004271749993
 N   -0.786409777763    1.278803601666    0.005606459025
 C   -2.086335264920    0.970724213305   -0.002848394133
 H   -2.896388793707    1.697305014407    0.001199743730
 H   -3.231697838858   -0.846545469329   -0.025486784610
LI    3.261355387278   10.093223514628    0.113304029386
