14

 C    0.694155360932    1.682854840673    0.000000210552
 O    0.969105360932    0.249614840673    0.000000210552
 H    1.931765360932    0.122474840673    0.000000210552
 H   -0.401664639068    1.783854840673    0.000000210552
 H    1.105985360932    2.174104840673    0.892810210552
 H    1.105985360932    2.174104840673   -0.892809789448
 K   -0.557764639068   -0.143665159327   -2.176789789448
 K   -0.557764639068   -0.143665159327    2.176790210552
 O    0.388070300611    0.099954362666   -0.000000682590
 C    0.663017227471   -1.333281481258   -0.000000682593
 H   -0.574589534705    0.227099483951   -0.000002056945
 H    1.758842759923   -1.434279616514    0.000000894168
 H    0.251186853284   -1.824528082156   -0.892813827716
 H    0.251184237740   -1.824528583917    0.892810979964
