14

 C    0.825218709747    1.716613566733    0.000000412017
 O    1.100168709747    0.283373566733    0.000000412017
 H    2.062828709747    0.156233566733    0.000000412017
 H   -0.270601290253    1.817613566733    0.000000412017
 H    1.237048709747    2.207863566733    0.892810412017
 H    1.237048709747    2.207863566733   -0.892809587983
 K   -0.426701290253   -0.109906433267   -2.176789587983
 K   -0.426701290253   -0.109906433267    2.176790412017
 O   -0.061901410895   -0.015947389280   -0.000001374267
 C    0.213045515965   -1.449183233205   -0.000001374271
 H   -1.024561246211    0.111197732005   -0.000002748623
 H    1.308871048416   -1.550181368460    0.000000202491
 H   -0.198784858222   -1.940429834102   -0.892814519393
 H   -0.198787473767   -1.940430335863    0.892810288287
