14

 C    0.847062601216    1.722240021076    0.000000445595
 O    1.122012601216    0.289000021076    0.000000445595
 H    2.084672601216    0.161860021076    0.000000445595
 H   -0.248757398784    1.823240021076    0.000000445595
 H    1.258892601216    2.213490021076    0.892810445595
 H    1.258892601216    2.213490021076   -0.892809554405
 K   -0.404857398784   -0.104279978924   -2.176789554405
 K   -0.404857398784   -0.104279978924    2.176790445595
 O   -0.136896696146   -0.035264347938   -0.000001489547
 C    0.138050230714   -1.468500191862   -0.000001489550
 H   -1.099556531463    0.091880773347   -0.000002863902
 H    1.233875763165   -1.569498327118    0.000000087211
 H   -0.273780143473   -1.959746792760   -0.892814634673
 H   -0.273782759018   -1.959747294521    0.892810173007
