14

 C    0.934438167092    1.744745838450    0.000000579905
 O    1.209388167092    0.311505838450    0.000000579905
 H    2.172048167092    0.184365838450    0.000000579905
 H   -0.161381832908    1.845745838450    0.000000579905
 H    1.346268167092    2.235995838450    0.892810579905
 H    1.346268167092    2.235995838450   -0.892809420095
 K   -0.317481832908   -0.081774161550   -2.176789420095
 K   -0.317481832908   -0.081774161550    2.176790579905
 O   -0.436877837150   -0.112532182568   -0.000001950665
 C   -0.161930910291   -1.545768026493   -0.000001950668
 H   -1.399537672467    0.014612938717   -0.000003325020
 H    0.933894622161   -1.646766161749   -0.000000373907
 H   -0.573761284477   -2.037014627391   -0.892815095791
 H   -0.573763900022   -2.037015129152    0.892809711889
