14

 C    0.978125950030    1.755998747136    0.000000647060
 O    1.253075950030    0.322758747136    0.000000647060
 H    2.215735950030    0.195618747136    0.000000647060
 H   -0.117694049970    1.856998747136    0.000000647060
 H    1.389955950030    2.247248747136    0.892810647060
 H    1.389955950030    2.247248747136   -0.892809352940
 K   -0.273794049970   -0.070521252864   -2.176789352940
 K   -0.273794049970   -0.070521252864    2.176790647060
 O   -0.586868407653   -0.151166099884   -0.000002181224
 C   -0.311921480793   -1.584401943809   -0.000002181227
 H   -1.549528242969   -0.024020978599   -0.000003555580
 H    0.783904051659   -1.685400079064   -0.000000604466
 H   -0.723751854979   -2.075648544706   -0.892815326350
 H   -0.723754470524   -2.075649046467    0.892809481330
