14

 C    2.944076182247    2.262379638038    0.000003669035
 O    3.219026182247    0.829139638038    0.000003669035
 H    4.181686182247    0.701999638038    0.000003669035
 H    1.848256182247    2.363379638038    0.000003669035
 H    3.355906182247    2.753629638038    0.892813669035
 H    3.355906182247    2.753629638038   -0.892806330965
 K    1.692156182247    0.435859638038   -2.176786330965
 K    1.692156182247    0.435859638038    2.176793669035
 O   -7.336444080249   -1.889692379078   -0.000012556383
 C   -7.061497153389   -3.322928223003   -0.000012556387
 H   -8.299103915566   -1.762547257793   -0.000013930739
 H   -5.965671620938   -3.423926358258   -0.000010979626
 H   -7.473327527576   -3.814174823900   -0.892825701509
 H   -7.473330143121   -3.814175325661    0.892799106171
