14

 C    1.021813732968    1.767251655823    0.000000714215
 O    1.296763732968    0.334011655823    0.000000714215
 H    2.259423732968    0.206871655823    0.000000714215
 H   -0.074006267032    1.868251655823    0.000000714215
 H    1.433643732968    2.258501655823    0.892810714215
 H    1.433643732968    2.258501655823   -0.892809285785
 K   -0.230106267032   -0.059268344177   -2.176789285785
 K   -0.230106267032   -0.059268344177    2.176790714215
 O   -0.736858978155   -0.189800017199   -0.000002411783
 C   -0.461912051295   -1.623035861124   -0.000002411786
 H   -1.699518813471   -0.062654895914   -0.000003786139
 H    0.633913481157   -1.724033996380   -0.000000835025
 H   -0.873742425482   -2.114282462021   -0.892815556909
 H   -0.873745041026   -2.114282963782    0.892809250771
