14

 C    1.043657624438    1.772878110166    0.000000747792
 O    1.318607624438    0.339638110166    0.000000747792
 H    2.281267624438    0.212498110166    0.000000747792
 H   -0.052162375562    1.873878110166    0.000000747792
 H    1.455487624438    2.264128110166    0.892810747792
 H    1.455487624438    2.264128110166   -0.892809252208
 K   -0.208262375562   -0.053641889834   -2.176789252208
 K   -0.208262375562   -0.053641889834    2.176790747792
 O   -0.811854263406   -0.209116975857   -0.000002527063
 C   -0.536907336546   -1.642352819782   -0.000002527066
 H   -1.774514098722   -0.081971854572   -0.000003901418
 H    0.558918195905   -1.743350955037   -0.000000950305
 H   -0.948737710733   -2.133599420679   -0.892815672189
 H   -0.948740326277   -2.133599922440    0.892809135491
