14

 C    1.196564864721    1.812263290570    0.000000982835
 O    1.471514864721    0.379023290570    0.000000982835
 H    2.434174864721    0.251883290570    0.000000982835
 H    0.100744864721    1.913263290570    0.000000982835
 H    1.608394864721    2.303513290570    0.892810982835
 H    1.608394864721    2.303513290570   -0.892809017165
 K   -0.055355135279   -0.014256709430   -2.176789017165
 K   -0.055355135279   -0.014256709430    2.176790982835
 O   -1.336821260163   -0.344335686461   -0.000003334019
 C   -1.061874333303   -1.777571530386   -0.000003334023
 H   -2.299481095480   -0.217190565176   -0.000004708375
 H    0.033951199148   -1.878569665641   -0.000001757262
 H   -1.473704707490   -2.268818131283   -0.892816479146
 H   -1.473707323035   -2.268818633044    0.892808328535
