14

 C    1.218408756190    1.817889744913    0.000001016412
 O    1.493358756190    0.384649744913    0.000001016412
 H    2.456018756190    0.257509744913    0.000001016412
 H    0.122588756190    1.918889744913    0.000001016412
 H    1.630238756190    2.309139744913    0.892811016412
 H    1.630238756190    2.309139744913   -0.892808983588
 K   -0.033511243810   -0.008630255087   -2.176788983588
 K   -0.033511243810   -0.008630255087    2.176791016412
 O   -1.411816545414   -0.363652645119   -0.000003449299
 C   -1.136869618555   -1.796888489043   -0.000003449302
 H   -2.374476380731   -0.236507523834   -0.000004823655
 H   -0.041044086103   -1.897886624299   -0.000001872541
 H   -1.548699992741   -2.288135089941   -0.892816594425
 H   -1.548702608286   -2.288135591702    0.892808213255
