14

 C    1.305784322066    1.840395562287    0.000001150722
 O    1.580734322066    0.407155562287    0.000001150722
 H    2.543394322066    0.280015562287    0.000001150722
 H    0.209964322066    1.941395562287    0.000001150722
 H    1.717614322066    2.331645562287    0.892811150722
 H    1.717614322066    2.331645562287   -0.892808849278
 K    0.053864322066    0.013875562287   -2.176788849278
 K    0.053864322066    0.013875562287    2.176791150722
 O   -1.711797686419   -0.440920479750   -0.000003910417
 C   -1.436850759559   -1.874156323674   -0.000003910421
 H   -2.674457521735   -0.313775358465   -0.000005284773
 H   -0.341025227107   -1.975154458930   -0.000002333659
 H   -1.848681133746   -2.365402924572   -0.892817055543
 H   -1.848683749290   -2.365403426333    0.892807752137
