14

 C    1.327628213536    1.846022016630    0.000001184300
 O    1.602578213536    0.412782016630    0.000001184300
 H    2.565238213536    0.285642016630    0.000001184300
 H    0.231808213536    1.947022016630    0.000001184300
 H    1.739458213536    2.337272016630    0.892811184300
 H    1.739458213536    2.337272016630   -0.892808815700
 K    0.075708213536    0.019502016630   -2.176788815700
 K    0.075708213536    0.019502016630    2.176791184300
 O   -1.786792971670   -0.460237438407   -0.000004025697
 C   -1.511846044810   -1.893473282332   -0.000004025700
 H   -2.749452806986   -0.333092317122   -0.000005400052
 H   -0.416020512358   -1.994471417588   -0.000002448939
 H   -1.923676418997   -2.384719883229   -0.892817170823
 H   -1.923679034541   -2.384720384990    0.892807636857
