14

 C    1.349472105005    1.851648470973    0.000001217877
 O    1.624422105005    0.418408470973    0.000001217877
 H    2.587082105005    0.291268470973    0.000001217877
 H    0.253652105005    1.952648470973    0.000001217877
 H    1.761302105005    2.342898470973    0.892811217877
 H    1.761302105005    2.342898470973   -0.892808782123
 K    0.097552105005    0.025128470973   -2.176788782123
 K    0.097552105005    0.025128470973    2.176791217877
 O   -1.861788256921   -0.479554397065   -0.000004140976
 C   -1.586841330061   -1.912790240990   -0.000004140980
 H   -2.824448092237   -0.352409275780   -0.000005515332
 H   -0.491015797610   -2.013788376245   -0.000002564219
 H   -1.998671704248   -2.404036841887   -0.892817286102
 H   -1.998674319792   -2.404037343648    0.892807521578
