14

 C    1.393159887943    1.862901379660    0.000001285032
 O    1.668109887943    0.429661379660    0.000001285032
 H    2.630769887943    0.302521379660    0.000001285032
 H    0.297339887943    1.963901379660    0.000001285032
 H    1.804989887943    2.354151379660    0.892811285032
 H    1.804989887943    2.354151379660   -0.892808714968
 K    0.141239887943    0.036381379660   -2.176788714968
 K    0.141239887943    0.036381379660    2.176791285032
 O   -2.011778827423   -0.518188314380   -0.000004371535
 C   -1.736831900563   -1.951424158305   -0.000004371539
 H   -2.974438662739   -0.391043193095   -0.000005745891
 H   -0.641006368112   -2.052422293561   -0.000002794778
 H   -2.148662274750   -2.442670759203   -0.892817516661
 H   -2.148664890295   -2.442671260964    0.892807291019
