14

 C    1.436847670881    1.874154288347    0.000001352187
 O    1.711797670881    0.440914288347    0.000001352187
 H    2.674457670881    0.313774288347    0.000001352187
 H    0.341027670881    1.975154288347    0.000001352187
 H    1.848677670881    2.365404288347    0.892811352187
 H    1.848677670881    2.365404288347   -0.892808647813
 K    0.184927670881    0.047634288347   -2.176788647813
 K    0.184927670881    0.047634288347    2.176791352187
 O   -2.161769397925   -0.556822231696   -0.000004602095
 C   -1.886822471065   -1.990058075620   -0.000004602098
 H   -3.124429233242   -0.429677110411   -0.000005976450
 H   -0.790996938614   -2.091056210876   -0.000003025337
 H   -2.298652845252   -2.481304676518   -0.892817747221
 H   -2.298655460797   -2.481305178279    0.892807060459
