14

 C    1.458691562350    1.879780742690    0.000001385765
 O    1.733641562350    0.446540742690    0.000001385765
 H    2.696301562350    0.319400742690    0.000001385765
 H    0.362871562350    1.980780742690    0.000001385765
 H    1.870521562350    2.371030742690    0.892811385765
 H    1.870521562350    2.371030742690   -0.892808614235
 K    0.206771562350    0.053260742690   -2.176788614235
 K    0.206771562350    0.053260742690    2.176791385765
 O   -2.236764683176   -0.576139190354   -0.000004717374
 C   -1.961817756316   -2.009375034278   -0.000004717377
 H   -3.199424518493   -0.448994069069   -0.000006091730
 H   -0.865992223865   -2.110373169534   -0.000003140616
 H   -2.373648130503   -2.500621635176   -0.892817862500
 H   -2.373650746048   -2.500622136937    0.892806945180
