14

 C    1.480535453819    1.885407197033    0.000001419342
 O    1.755485453819    0.452167197033    0.000001419342
 H    2.718145453819    0.325027197033    0.000001419342
 H    0.384715453819    1.986407197033    0.000001419342
 H    1.892365453819    2.376657197033    0.892811419342
 H    1.892365453819    2.376657197033   -0.892808580658
 K    0.228615453819    0.058887197033   -2.176788580658
 K    0.228615453819    0.058887197033    2.176791419342
 O   -2.311759968427   -0.595456149011   -0.000004832654
 C   -2.036813041567   -2.028691992936   -0.000004832657
 H   -3.274419803744   -0.468311027726   -0.000006207009
 H   -0.940987509116   -2.129690128192   -0.000003255896
 H   -2.448643415754   -2.519938593833   -0.892817977780
 H   -2.448646031299   -2.519939095594    0.892806829900
