14

 C    1.567911019695    1.907913014407    0.000001553652
 O    1.842861019695    0.474673014407    0.000001553652
 H    2.805521019695    0.347533014407    0.000001553652
 H    0.472091019695    2.008913014407    0.000001553652
 H    1.979741019695    2.399163014407    0.892811553652
 H    1.979741019695    2.399163014407   -0.892808446348
 K    0.315991019695    0.081393014407   -2.176788446348
 K    0.315991019695    0.081393014407    2.176791553652
 O   -2.611741109431   -0.672723983642   -0.000005293772
 C   -2.336794182572   -2.105959827567   -0.000005293775
 H   -3.574400944748   -0.545578862357   -0.000006668127
 H   -1.240968650120   -2.206957962822   -0.000003717014
 H   -2.748624556758   -2.597206428464   -0.892818438898
 H   -2.748627172303   -2.597206930225    0.892806368782
