14

 C    1.611598802634    1.919165923093    0.000001620807
 O    1.886548802634    0.485925923093    0.000001620807
 H    2.849208802634    0.358785923093    0.000001620807
 H    0.515778802634    2.020165923093    0.000001620807
 H    2.023428802634    2.410415923093    0.892811620807
 H    2.023428802634    2.410415923093   -0.892808379193
 K    0.359678802634    0.092645923093   -2.176788379193
 K    0.359678802634    0.092645923093    2.176791620807
 O   -2.761731679934   -0.711357900958   -0.000005524331
 C   -2.486784753074   -2.144593744882   -0.000005524334
 H   -3.724391515250   -0.584212779672   -0.000006898686
 H   -1.390959220622   -2.245591880138   -0.000003947573
 H   -2.898615127261   -2.635840345780   -0.892818669457
 H   -2.898617742805   -2.635840847541    0.892806138223
