14

 C    1.742662151448    1.952924649154    0.000001822272
 O    2.017612151448    0.519684649154    0.000001822272
 H    2.980272151448    0.392544649154    0.000001822272
 H    0.646842151448    2.053924649154    0.000001822272
 H    2.154492151448    2.444174649154    0.892811822272
 H    2.154492151448    2.444174649154   -0.892808177728
 K    0.490742151448    0.126404649154   -2.176788177728
 K    0.490742151448    0.126404649154    2.176791822272
 O   -3.211703391440   -0.827259652904   -0.000006216008
 C   -2.936756464580   -2.260495496828   -0.000006216012
 H   -4.174363226757   -0.700114531619   -0.000007590364
 H   -1.840930932129   -2.361493632084   -0.000004639250
 H   -3.348586838767   -2.751742097726   -0.892819361134
 H   -3.348589454312   -2.751742599487    0.892805446546
