14

 C    1.808193825855    1.969804012184    0.000001923005
 O    2.083143825855    0.536564012184    0.000001923005
 H    3.045803825855    0.409424012184    0.000001923005
 H    0.712373825855    2.070804012184    0.000001923005
 H    2.220023825855    2.461054012184    0.892811923005
 H    2.220023825855    2.461054012184   -0.892808076995
 K    0.556273825855    0.143284012184   -2.176788076995
 K    0.556273825855    0.143284012184    2.176791923005
 O   -3.436689247193   -0.885210528877   -0.000006561847
 C   -3.161742320333   -2.318446372802   -0.000006561850
 H   -4.399349082510   -0.758065407592   -0.000007936202
 H   -2.065916787882   -2.419444508057   -0.000004985089
 H   -3.573572694520   -2.809692973699   -0.892819706973
 H   -3.573575310065   -2.809693475460    0.892805100707
