14

 C    1.851881608793    1.981056920870    0.000001990160
 O    2.126831608793    0.547816920870    0.000001990160
 H    3.089491608793    0.420676920870    0.000001990160
 H    0.756061608793    2.082056920870    0.000001990160
 H    2.263711608793    2.472306920870    0.892811990160
 H    2.263711608793    2.472306920870   -0.892808009840
 K    0.599961608793    0.154536920870   -2.176788009840
 K    0.599961608793    0.154536920870    2.176791990160
 O   -3.586679817695   -0.923844446192   -0.000006792406
 C   -3.311732890836   -2.357080290117   -0.000006792409
 H   -4.549339653012   -0.796699324907   -0.000008166762
 H   -2.215907358384   -2.458078425373   -0.000005215648
 H   -3.723563265022   -2.848326891014   -0.892819937532
 H   -3.723565880567   -2.848327392776    0.892804870148
