14

 C    1.961101066139    2.009189192587    0.000002158047
 O    2.236051066139    0.575949192587    0.000002158047
 H    3.198711066139    0.448809192587    0.000002158047
 H    0.865281066139    2.110189192587    0.000002158047
 H    2.372931066139    2.500439192587    0.892812158047
 H    2.372931066139    2.500439192587   -0.892807841953
 K    0.709181066139    0.182669192587   -2.176787841953
 K    0.709181066139    0.182669192587    2.176792158047
 O   -3.961656243951   -1.020429239481   -0.000007368804
 C   -3.686709317091   -2.453665083406   -0.000007368807
 H   -4.924316079267   -0.893284118196   -0.000008743159
 H   -2.590883784640   -2.554663218661   -0.000005792046
 H   -4.098539691278   -2.944911684303   -0.892820513930
 H   -4.098542306822   -2.944912186064    0.892804293750
