14

 C    1.982944957608    2.014815646930    0.000002191625
 O    2.257894957608    0.581575646930    0.000002191625
 H    3.220554957608    0.454435646930    0.000002191625
 H    0.887124957608    2.115815646930    0.000002191625
 H    2.394774957608    2.506065646930    0.892812191625
 H    2.394774957608    2.506065646930   -0.892807808375
 K    0.731024957608    0.188295646930   -2.176787808375
 K    0.731024957608    0.188295646930    2.176792191625
 O   -4.036651529202   -1.039746198139   -0.000007484083
 C   -3.761704602342   -2.472982042063   -0.000007484087
 H   -4.999311364518   -0.912601076854   -0.000008858439
 H   -2.665879069891   -2.573980177319   -0.000005907325
 H   -4.173534976529   -2.964228642961   -0.892820629209
 H   -4.173537592074   -2.964229144722    0.892804178471
