14

 C    2.135852197891    2.054200827334    0.000002426667
 O    2.410802197891    0.620960827334    0.000002426667
 H    3.373462197891    0.493820827334    0.000002426667
 H    1.040032197891    2.155200827334    0.000002426667
 H    2.547682197891    2.545450827334    0.892812426667
 H    2.547682197891    2.545450827334   -0.892807573333
 K    0.883932197891    0.227680827334   -2.176787573333
 K    0.883932197891    0.227680827334    2.176792426667
 O   -4.561618525959   -1.174964908743   -0.000008291040
 C   -4.286671599100   -2.608200752667   -0.000008291043
 H   -5.524278361276   -1.047819787458   -0.000009665396
 H   -3.190846066648   -2.709198887923   -0.000006714282
 H   -4.698501973286   -3.099447353565   -0.892821436166
 H   -4.698504588831   -3.099447855326    0.892803371514
