14

 C    2.157696089360    2.059827281677    0.000002460245
 O    2.432646089360    0.626587281677    0.000002460245
 H    3.395306089360    0.499447281677    0.000002460245
 H    1.061876089360    2.160827281677    0.000002460245
 H    2.569526089360    2.551077281677    0.892812460245
 H    2.569526089360    2.551077281677   -0.892807539755
 K    0.905776089360    0.233307281677   -2.176787539755
 K    0.905776089360    0.233307281677    2.176792460245
 O   -4.636613811210   -1.194281867400   -0.000008406320
 C   -4.361666884351   -2.627517711325   -0.000008406323
 H   -5.599273646527   -1.067136746115   -0.000009780675
 H   -3.265841351899   -2.728515846581   -0.000006829562
 H   -4.773497258537   -3.118764312222   -0.892821551446
 H   -4.773499874082   -3.118764813984    0.892803256234
