14

 C    2.179539980830    2.065453736021    0.000002493822
 O    2.454489980830    0.632213736021    0.000002493822
 H    3.417149980830    0.505073736021    0.000002493822
 H    1.083719980830    2.166453736021    0.000002493822
 H    2.591369980830    2.556703736021    0.892812493822
 H    2.591369980830    2.556703736021   -0.892807506178
 K    0.927619980830    0.238933736021   -2.176787506178
 K    0.927619980830    0.238933736021    2.176792493822
 O   -4.711609096462   -1.213598826058   -0.000008521599
 C   -4.436662169602   -2.646834669983   -0.000008521602
 H   -5.674268931778   -1.086453704773   -0.000009895955
 H   -3.340836637150   -2.747832805238   -0.000006944841
 H   -4.848492543788   -3.138081270880   -0.892821666725
 H   -4.848495159333   -3.138081772641    0.892803140955
