14

 C    2.201383872299    2.071080190364    0.000002527400
 O    2.476333872299    0.637840190364    0.000002527400
 H    3.438993872299    0.510700190364    0.000002527400
 H    1.105563872299    2.172080190364    0.000002527400
 H    2.613213872299    2.562330190364    0.892812527400
 H    2.613213872299    2.562330190364   -0.892807472600
 K    0.949463872299    0.244560190364   -2.176787472600
 K    0.949463872299    0.244560190364    2.176792527400
 O   -4.786604381713   -1.232915784716   -0.000008636879
 C   -4.511657454853   -2.666151628640   -0.000008636882
 H   -5.749264217029   -1.105770663431   -0.000010011234
 H   -3.415831922401   -2.767149763896   -0.000007060121
 H   -4.923487829040   -3.157398229538   -0.892821782005
 H   -4.923490444584   -3.157398731299    0.892803025675
