14

 C    2.223227763768    2.076706644707    0.000002560977
 O    2.498177763768    0.643466644707    0.000002560977
 H    3.460837763768    0.516326644707    0.000002560977
 H    1.127407763768    2.177706644707    0.000002560977
 H    2.635057763768    2.567956644707    0.892812560977
 H    2.635057763768    2.567956644707   -0.892807439023
 K    0.971307763768    0.250186644707   -2.176787439023
 K    0.971307763768    0.250186644707    2.176792560977
 O   -4.861599666964   -1.252232743373   -0.000008752158
 C   -4.586652740104   -2.685468587298   -0.000008752162
 H   -5.824259502280   -1.125087622088   -0.000010126514
 H   -3.490827207652   -2.786466722554   -0.000007175400
 H   -4.998483114291   -3.176715188196   -0.892821897284
 H   -4.998485729835   -3.176715689957    0.892802910396
