14

 C    2.245071655237    2.082333099051    0.000002594555
 O    2.520021655237    0.649093099051    0.000002594555
 H    3.482681655237    0.521953099051    0.000002594555
 H    1.149251655237    2.183333099051    0.000002594555
 H    2.656901655237    2.573583099051    0.892812594555
 H    2.656901655237    2.573583099051   -0.892807405445
 K    0.993151655237    0.255813099051   -2.176787405445
 K    0.993151655237    0.255813099051    2.176792594555
 O   -4.936594952215   -1.271549702031   -0.000008867438
 C   -4.661648025355   -2.704785545956   -0.000008867441
 H   -5.899254787531   -1.144404580746   -0.000010241793
 H   -3.565822492904   -2.805783681212   -0.000007290680
 H   -5.073478399542   -3.196032146853   -0.892822012564
 H   -5.073481015086   -3.196032648614    0.892802795116
