14

 C    2.266915546706    2.087959553394    0.000002628132
 O    2.541865546706    0.654719553394    0.000002628132
 H    3.504525546706    0.527579553394    0.000002628132
 H    1.171095546706    2.188959553394    0.000002628132
 H    2.678745546706    2.579209553394    0.892812628132
 H    2.678745546706    2.579209553394   -0.892807371868
 K    1.014995546706    0.261439553394   -2.176787371868
 K    1.014995546706    0.261439553394    2.176792628132
 O   -5.011590237466   -1.290866660689   -0.000008982717
 C   -4.736643310606   -2.724102504614   -0.000008982721
 H   -5.974250072782   -1.163721539404   -0.000010357073
 H   -3.640817778155   -2.825100639869   -0.000007405960
 H   -5.148473684793   -3.215349105511   -0.892822127843
 H   -5.148476300337   -3.215349607272    0.892802679837
