14

 C    2.332447221113    2.104838916424    0.000002728865
 O    2.607397221113    0.671598916424    0.000002728865
 H    3.570057221113    0.544458916424    0.000002728865
 H    1.236627221113    2.205838916424    0.000002728865
 H    2.744277221113    2.596088916424    0.892812728865
 H    2.744277221113    2.596088916424   -0.892807271135
 K    1.080527221113    0.278318916424   -2.176787271135
 K    1.080527221113    0.278318916424    2.176792728865
 O   -5.236576093219   -1.348817536662   -0.000009328556
 C   -4.961629166359   -2.782053380587   -0.000009328559
 H   -6.199235928535   -1.221672415377   -0.000010702912
 H   -3.865803633908   -2.883051515842   -0.000007751798
 H   -5.373459540546   -3.273299981484   -0.892822473682
 H   -5.373462156091   -3.273300483245    0.892802333998
