14

 C    2.354291112582    2.110465370767    0.000002762442
 O    2.629241112582    0.677225370767    0.000002762442
 H    3.591901112582    0.550085370767    0.000002762442
 H    1.258471112582    2.211465370767    0.000002762442
 H    2.766121112582    2.601715370767    0.892812762442
 H    2.766121112582    2.601715370767   -0.892807237558
 K    1.102371112582    0.283945370767   -2.176787237558
 K    1.102371112582    0.283945370767    2.176792762442
 O   -5.311571378470   -1.368134495320   -0.000009443836
 C   -5.036624451610   -2.801370339244   -0.000009443839
 H   -6.274231213787   -1.240989374035   -0.000010818191
 H   -3.940798919159   -2.902368474500   -0.000007867078
 H   -5.448454825797   -3.292616940142   -0.892822588962
 H   -5.448457441342   -3.292617441903    0.892802218718
