14

 C    2.397978895520    2.121718279454    0.000002829597
 O    2.672928895520    0.688478279454    0.000002829597
 H    3.635588895520    0.561338279454    0.000002829597
 H    1.302158895520    2.222718279454    0.000002829597
 H    2.809808895520    2.612968279454    0.892812829597
 H    2.809808895520    2.612968279454   -0.892807170403
 K    1.146058895520    0.295198279454   -2.176787170403
 K    1.146058895520    0.295198279454    2.176792829597
 O   -5.461561948972   -1.406768412635   -0.000009674395
 C   -5.186615022112   -2.840004256560   -0.000009674398
 H   -6.424221784289   -1.279623291350   -0.000011048750
 H   -4.090789489661   -2.941002391816   -0.000008097637
 H   -5.598445396299   -3.331250857457   -0.892822819521
 H   -5.598448011844   -3.331251359218    0.892801988159
