14

 C    2.419822786989    2.127344733797    0.000002863175
 O    2.694772786989    0.694104733797    0.000002863175
 H    3.657432786989    0.566964733797    0.000002863175
 H    1.324002786989    2.228344733797    0.000002863175
 H    2.831652786989    2.618594733797    0.892812863175
 H    2.831652786989    2.618594733797   -0.892807136825
 K    1.167902786989    0.300824733797   -2.176787136825
 K    1.167902786989    0.300824733797    2.176792863175
 O   -5.536557234223   -1.426085371293   -0.000009789674
 C   -5.261610307363   -2.859321215218   -0.000009789678
 H   -6.499217069540   -1.298940250008   -0.000011164030
 H   -4.165784774912   -2.960319350473   -0.000008212916
 H   -5.673440681550   -3.350567816115   -0.892822934800
 H   -5.673443297095   -3.350568317876    0.892801872880
