14

 P   -0.512459234551    0.403032274447   -0.230339979983
 O   -1.099459234551    1.453032274447    0.724660020017
 O   -0.778459234551    0.451032274447   -1.742339979983
 O    1.150540765449    0.229032274447    0.056660020017
 O   -0.827459234551   -1.154967725553    0.361660020017
 C    1.887540765449    1.394032274447   -0.320339979983
 H    1.556540765449    2.277032274447    0.255660020017
 H    1.772540765449    1.605032274447   -1.398339979983
 H    2.947540765449    1.192032274447   -0.100339979983
 C   -2.218459234551   -1.477967725553    0.311660020017
 H   -2.596459234551   -1.450967725553   -0.726339979983
 H   -2.811459234551   -0.778967725553    0.927660020017
 H   -2.328459234551   -2.497967725553    0.711660020017
NA    2.008914206223   -1.194887779226    0.746331475801
