14

 P   -0.519867313437    0.415321228863   -0.236292098615
 O   -1.106867313437    1.465321228863    0.718707901385
 O   -0.785867313437    0.463321228863   -1.748292098615
 O    1.143132686563    0.241321228863    0.050707901385
 O   -0.834867313437   -1.142678771137    0.355707901385
 C    1.880132686563    1.406321228863   -0.326292098615
 H    1.549132686563    2.289321228863    0.249707901385
 H    1.765132686563    1.617321228863   -1.404292098615
 H    2.940132686563    1.204321228863   -0.106292098615
 C   -2.225867313437   -1.465678771137    0.305707901385
 H   -2.603867313437   -1.438678771137   -0.732292098615
 H   -2.818867313437   -0.766678771137    0.921707901385
 H   -2.335867313437   -2.485678771137    0.705707901385
NA    2.049193540713   -1.261705494458    0.778694438046
