14

 P   -1.119921703237    1.410726536558   -0.718413707817
 O   -1.706921703237    2.460726536558    0.236586292183
 O   -1.385921703237    1.458726536558   -2.230413707817
 O    0.543078296763    1.236726536558   -0.431413707817
 O   -1.434921703237   -0.147273463442   -0.126413707817
 C    1.280078296763    2.401726536558   -0.808413707817
 H    0.949078296763    3.284726536558   -0.232413707817
 H    1.165078296763    2.612726536558   -1.886413707817
 H    2.340078296763    2.199726536558   -0.588413707817
 C   -2.825921703237   -0.470273463442   -0.176413707817
 H   -3.203921703237   -0.443273463442   -1.214413707817
 H   -3.418921703237    0.228726536558    0.439586292183
 H   -2.935921703237   -1.490273463442    0.223586292183
NA    5.311819634395   -6.673940428291    3.400094379870
