14

 P   -0.527275392324    0.427610183279   -0.242244217247
 O   -1.114275392324    1.477610183279    0.712755782753
 O   -0.793275392324    0.475610183279   -1.754244217247
 O    1.135724607676    0.253610183279    0.044755782753
 O   -0.842275392324   -1.130389816721    0.349755782753
 C    1.872724607676    1.418610183279   -0.332244217247
 H    1.541724607676    2.301610183279    0.243755782753
 H    1.757724607676    1.629610183279   -1.410244217247
 H    2.932724607676    1.216610183279   -0.112244217247
 C   -2.233275392324   -1.453389816721    0.299755782753
 H   -2.611275392324   -1.426389816721   -0.738244217247
 H   -2.826275392324   -0.754389816721    0.915755782753
 H   -2.343275392324   -2.473389816721    0.699755782753
NA    2.089472875203   -1.328523209691    0.811057400291
