14

 P   -0.534683471210    0.439899137695   -0.248196335879
 O   -1.121683471210    1.489899137695    0.706803664121
 O   -0.800683471210    0.487899137695   -1.760196335879
 O    1.128316528790    0.265899137695    0.038803664121
 O   -0.849683471210   -1.118100862305    0.343803664121
 C    1.865316528790    1.430899137695   -0.338196335879
 H    1.534316528790    2.313899137695    0.237803664121
 H    1.750316528790    1.641899137695   -1.416196335879
 H    2.925316528790    1.228899137695   -0.118196335879
 C   -2.240683471210   -1.441100862305    0.293803664121
 H   -2.618683471210   -1.414100862305   -0.744196335879
 H   -2.833683471210   -0.742100862305    0.909803664121
 H   -2.350683471210   -2.461100862305    0.693803664121
NA    2.129752209693   -1.395340924923    0.843420362535
