14

 P   -0.542091550096    0.452188092111   -0.254148454511
 O   -1.129091550096    1.502188092111    0.700851545489
 O   -0.808091550096    0.500188092111   -1.766148454511
 O    1.120908449904    0.278188092111    0.032851545489
 O   -0.857091550096   -1.105811907889    0.337851545489
 C    1.857908449904    1.443188092111   -0.344148454511
 H    1.526908449904    2.326188092111    0.231851545489
 H    1.742908449904    1.654188092111   -1.422148454511
 H    2.917908449904    1.241188092111   -0.124148454511
 C   -2.248091550096   -1.428811907889    0.287851545489
 H   -2.626091550096   -1.401811907889   -0.750148454511
 H   -2.841091550096   -0.729811907889    0.903851545489
 H   -2.358091550096   -2.448811907889    0.687851545489
NA    2.170031544183   -1.462158640156    0.875783324780
