14

 P   -0.564315786756    0.489054955359   -0.272004810408
 O   -1.151315786756    1.539054955359    0.682995189592
 O   -0.830315786756    0.537054955359   -1.784004810408
 O    1.098684213244    0.315054955359    0.014995189592
 O   -0.879315786756   -1.068945044641    0.319995189592
 C    1.835684213244    1.480054955359   -0.362004810408
 H    1.504684213244    2.363054955359    0.213995189592
 H    1.720684213244    1.691054955359   -1.440004810408
 H    2.895684213244    1.278054955359   -0.142004810408
 C   -2.270315786756   -1.391945044641    0.269995189592
 H   -2.648315786756   -1.364945044641   -0.768004810408
 H   -2.863315786756   -0.692945044641    0.885995189592
 H   -2.380315786756   -2.411945044641    0.669995189592
NA    2.290869547652   -1.662611785853    0.972872211514
