14

 P   -0.593948102301    0.538210773023   -0.295813284936
 O   -1.180948102301    1.588210773023    0.659186715064
 O   -0.859948102301    0.586210773023   -1.807813284936
 O    1.069051897699    0.364210773023   -0.008813284936
 O   -0.908948102301   -1.019789226977    0.296186715064
 C    1.806051897699    1.529210773023   -0.385813284936
 H    1.475051897699    2.412210773023    0.190186715064
 H    1.691051897699    1.740210773023   -1.463813284936
 H    2.866051897699    1.327210773023   -0.165813284936
 C   -2.299948102301   -1.342789226977    0.246186715064
 H   -2.677948102301   -1.315789226977   -0.791813284936
 H   -2.892948102301   -0.643789226977    0.862186715064
 H   -2.409948102301   -2.362789226977    0.646186715064
NA    2.451986885612   -1.929882646783    1.102324060493
