14

 P   -0.601356181188    0.550499727439   -0.301765403568
 O   -1.188356181188    1.600499727439    0.653234596432
 O   -0.867356181188    0.598499727439   -1.813765403568
 O    1.061643818812    0.376499727439   -0.014765403568
 O   -0.916356181188   -1.007500272561    0.290234596432
 C    1.798643818812    1.541499727439   -0.391765403568
 H    1.467643818812    2.424499727439    0.184234596432
 H    1.683643818812    1.752499727439   -1.469765403568
 H    2.858643818812    1.339499727439   -0.171765403568
 C   -2.307356181188   -1.330500272561    0.240234596432
 H   -2.685356181188   -1.303500272561   -0.797765403568
 H   -2.900356181188   -0.631500272561    0.856234596432
 H   -2.417356181188   -2.350500272561    0.640234596432
NA    2.492266220102   -1.996700362016    1.134687022738
