14

 P   -0.608764260074    0.562788681855   -0.307717522200
 O   -1.195764260074    1.612788681855    0.647282477800
 O   -0.874764260074    0.610788681855   -1.819717522200
 O    1.054235739926    0.388788681855   -0.020717522200
 O   -0.923764260074   -0.995211318145    0.284282477800
 C    1.791235739926    1.553788681855   -0.397717522200
 H    1.460235739926    2.436788681855    0.178282477800
 H    1.676235739926    1.764788681855   -1.475717522200
 H    2.851235739926    1.351788681855   -0.177717522200
 C   -2.314764260074   -1.318211318145    0.234282477800
 H   -2.692764260074   -1.291211318145   -0.803717522200
 H   -2.907764260074   -0.619211318145    0.850282477800
 H   -2.424764260074   -2.338211318145    0.634282477800
NA    2.532545554592   -2.063518077248    1.167049984983
