14

 P   -0.616172338961    0.575077636271   -0.313669640832
 O   -1.203172338961    1.625077636271    0.641330359168
 O   -0.882172338961    0.623077636271   -1.825669640832
 O    1.046827661039    0.401077636271   -0.026669640832
 O   -0.931172338961   -0.982922363729    0.278330359168
 C    1.783827661039    1.566077636271   -0.403669640832
 H    1.452827661039    2.449077636271    0.172330359168
 H    1.668827661039    1.777077636271   -1.481669640832
 H    2.843827661039    1.364077636271   -0.183669640832
 C   -2.322172338961   -1.305922363729    0.228330359168
 H   -2.700172338961   -1.278922363729   -0.809669640832
 H   -2.915172338961   -0.606922363729    0.844330359168
 H   -2.432172338961   -2.325922363729    0.628330359168
NA    2.572824889082   -2.130335792481    1.199412947228
