14

 P   -0.630988496733    0.599655545103   -0.325573878097
 O   -1.217988496733    1.649655545103    0.629426121903
 O   -0.896988496733    0.647655545103   -1.837573878097
 O    1.032011503267    0.425655545103   -0.038573878097
 O   -0.945988496733   -0.958344454897    0.266426121903
 C    1.769011503267    1.590655545103   -0.415573878097
 H    1.438011503267    2.473655545103    0.160426121903
 H    1.654011503267    1.801655545103   -1.493573878097
 H    2.829011503267    1.388655545103   -0.195573878097
 C   -2.336988496733   -1.281344454897    0.216426121903
 H   -2.714988496733   -1.254344454897   -0.821573878097
 H   -2.929988496733   -0.582344454897    0.832426121903
 H   -2.446988496733   -2.301344454897    0.616426121903
NA    2.653383558061   -2.263971222946    1.264138871717
