14

 P   -0.638396575620    0.611944499519   -0.331525996729
 O   -1.225396575620    1.661944499519    0.623474003271
 O   -0.904396575620    0.659944499519   -1.843525996729
 O    1.024603424380    0.437944499519   -0.044525996729
 O   -0.953396575620   -0.946055500481    0.260474003271
 C    1.761603424380    1.602944499519   -0.421525996729
 H    1.430603424380    2.485944499519    0.154474003271
 H    1.646603424380    1.813944499519   -1.499525996729
 H    2.821603424380    1.400944499519   -0.201525996729
 C   -2.344396575620   -1.269055500481    0.210474003271
 H   -2.722396575620   -1.242055500481   -0.827525996729
 H   -2.937396575620   -0.570055500481    0.826474003271
 H   -2.454396575620   -2.289055500481    0.610474003271
NA    2.693662892551   -2.330788938178    1.296501833962
