14

 P   -0.660620812279    0.648811362767   -0.349382352625
 O   -1.247620812279    1.698811362767    0.605617647375
 O   -0.926620812279    0.696811362767   -1.861382352625
 O    1.002379187721    0.474811362767   -0.062382352625
 O   -0.975620812279   -0.909188637233    0.242617647375
 C    1.739379187721    1.639811362767   -0.439382352625
 H    1.408379187721    2.522811362767    0.136617647375
 H    1.624379187721    1.850811362767   -1.517382352625
 H    2.799379187721    1.437811362767   -0.219382352625
 C   -2.366620812279   -1.232188637233    0.192617647375
 H   -2.744620812279   -1.205188637233   -0.845382352625
 H   -2.959620812279   -0.533188637233    0.808617647375
 H   -2.476620812279   -2.252188637233    0.592617647375
NA    2.814500896021   -2.531242083876    1.393590720696
