14

 P   -0.705069285598    0.722545089262   -0.385095064418
 O   -1.292069285598    1.772545089262    0.569904935582
 O   -0.971069285598    0.770545089262   -1.897095064418
 O    0.957930714402    0.548545089262   -0.098095064418
 O   -1.020069285598   -0.835454910738    0.206904935582
 C    1.694930714402    1.713545089262   -0.475095064418
 H    1.363930714402    2.596545089262    0.100904935582
 H    1.579930714402    1.924545089262   -1.553095064418
 H    2.754930714402    1.511545089262   -0.255095064418
 C   -2.411069285598   -1.158454910738    0.156904935582
 H   -2.789069285598   -1.131454910738   -0.881095064418
 H   -3.004069285598   -0.459454910738    0.772904935582
 H   -2.521069285598   -2.178454910738    0.556904935582
NA    3.056176902960   -2.932148375271    1.587768494164
