14

 P   -0.719885443370    0.747122998094   -0.396999301682
 O   -1.306885443370    1.797122998094    0.558000698318
 O   -0.985885443370    0.795122998094   -1.908999301682
 O    0.943114556630    0.573122998094   -0.109999301682
 O   -1.034885443370   -0.810877001906    0.195000698318
 C    1.680114556630    1.738122998094   -0.486999301682
 H    1.349114556630    2.621122998094    0.089000698318
 H    1.565114556630    1.949122998094   -1.564999301682
 H    2.740114556630    1.536122998094   -0.266999301682
 C   -2.425885443370   -1.133877001906    0.145000698318
 H   -2.803885443370   -1.106877001906   -0.892999301682
 H   -3.018885443370   -0.434877001906    0.761000698318
 H   -2.535885443370   -2.153877001906    0.545000698318
NA    3.136735571940   -3.065783805736    1.652494418654
