14

 P   -0.749517758916    0.796278815758   -0.420807776211
 O   -1.336517758916    1.846278815758    0.534192223789
 O   -1.015517758916    0.844278815758   -1.932807776211
 O    0.913482241084    0.622278815758   -0.133807776211
 O   -1.064517758916   -0.761721184242    0.171192223789
 C    1.650482241084    1.787278815758   -0.510807776211
 H    1.319482241084    2.670278815758    0.065192223789
 H    1.535482241084    1.998278815758   -1.588807776211
 H    2.710482241084    1.585278815758   -0.290807776211
 C   -2.455517758916   -1.084721184242    0.121192223789
 H   -2.833517758916   -1.057721184242   -0.916807776211
 H   -3.048517758916   -0.385721184242    0.737192223789
 H   -2.565517758916   -2.104721184242    0.521192223789
NA    3.297852909900   -3.333054666666    1.781946267633
