14

 P   -0.764333916689    0.820856724590   -0.432712013475
 O   -1.351333916689    1.870856724590    0.522287986525
 O   -1.030333916689    0.868856724590   -1.944712013475
 O    0.898666083311    0.646856724590   -0.145712013475
 O   -1.079333916689   -0.737143275410    0.159287986525
 C    1.635666083311    1.811856724590   -0.522712013475
 H    1.304666083311    2.694856724590    0.053287986525
 H    1.520666083311    2.022856724590   -1.600712013475
 H    2.695666083311    1.609856724590   -0.302712013475
 C   -2.470333916689   -1.060143275410    0.109287986525
 H   -2.848333916689   -1.033143275410   -0.928712013475
 H   -3.063333916689   -0.361143275410    0.725287986525
 H   -2.580333916689   -2.080143275410    0.509287986525
NA    3.378411578880   -3.466690097131    1.846672192122
