14

 P   -0.823598547780    0.919168359918   -0.480328962532
 O   -1.410598547780    1.969168359918    0.474671037468
 O   -1.089598547780    0.967168359918   -1.992328962532
 O    0.839401452220    0.745168359918   -0.193328962532
 O   -1.138598547780   -0.638831640082    0.111671037468
 C    1.576401452220    1.910168359918   -0.570328962532
 H    1.245401452220    2.793168359918    0.005671037468
 H    1.461401452220    2.121168359918   -1.648328962532
 H    2.636401452220    1.708168359918   -0.350328962532
 C   -2.529598547780   -0.961831640082    0.061671037468
 H   -2.907598547780   -0.934831640082   -0.976328962532
 H   -3.122598547780   -0.262831640082    0.677671037468
 H   -2.639598547780   -1.981831640082    0.461671037468
NA    3.700646254799   -4.001231818991    2.105575890080
