14

 P   -0.831006626667    0.931457314334   -0.486281081164
 O   -1.418006626667    1.981457314334    0.468718918836
 O   -1.097006626667    0.979457314334   -1.998281081164
 O    0.831993373333    0.757457314334   -0.199281081164
 O   -1.146006626667   -0.626542685666    0.105718918836
 C    1.568993373333    1.922457314334   -0.576281081164
 H    1.237993373333    2.805457314334   -0.000281081164
 H    1.453993373333    2.133457314334   -1.654281081164
 H    2.628993373333    1.720457314334   -0.356281081164
 C   -2.537006626667   -0.949542685666    0.055718918836
 H   -2.915006626667   -0.922542685666   -0.982281081164
 H   -3.130006626667   -0.250542685666    0.671718918836
 H   -2.647006626667   -1.969542685666    0.455718918836
NA    3.740925589289   -4.068049534223    2.137938852325
