14

 P   -0.838414705553    0.943746268750   -0.492233199796
 O   -1.425414705553    1.993746268750    0.462766800204
 O   -1.104414705553    0.991746268750   -2.004233199796
 O    0.824585294447    0.769746268750   -0.205233199796
 O   -1.153414705553   -0.614253731250    0.099766800204
 C    1.561585294447    1.934746268750   -0.582233199796
 H    1.230585294447    2.817746268750   -0.006233199796
 H    1.446585294447    2.145746268750   -1.660233199796
 H    2.621585294447    1.732746268750   -0.362233199796
 C   -2.544414705553   -0.937253731250    0.049766800204
 H   -2.922414705553   -0.910253731250   -0.988233199796
 H   -3.137414705553   -0.238253731250    0.665766800204
 H   -2.654414705553   -1.957253731250    0.449766800204
NA    3.781204923779   -4.134867249456    2.170301814570
