14

 P   -0.905087415531    1.054346858494   -0.545802267486
 O   -1.492087415531    2.104346858494    0.409197732514
 O   -1.171087415531    1.102346858494   -2.057802267486
 O    0.757912584469    0.880346858494   -0.258802267486
 O   -1.220087415531   -0.503653141506    0.046197732514
 C    1.494912584469    2.045346858494   -0.635802267486
 H    1.163912584469    2.928346858494   -0.059802267486
 H    1.379912584469    2.256346858494   -1.713802267486
 H    2.554912584469    1.843346858494   -0.415802267486
 C   -2.611087415531   -0.826653141506   -0.003802267486
 H   -2.989087415531   -0.799653141506   -1.041802267486
 H   -3.204087415531   -0.127653141506    0.612197732514
 H   -2.721087415531   -1.846653141506    0.396197732514
NA    4.143718934188   -4.736226686548    2.461568474773
