14

 P   -0.912495494417    1.066635812910   -0.551754386118
 O   -1.499495494417    2.116635812910    0.403245613882
 O   -1.178495494417    1.114635812910   -2.063754386118
 O    0.750504505583    0.892635812910   -0.264754386118
 O   -1.227495494417   -0.491364187090    0.040245613882
 C    1.487504505583    2.057635812910   -0.641754386118
 H    1.156504505583    2.940635812910   -0.065754386118
 H    1.372504505583    2.268635812910   -1.719754386118
 H    2.547504505583    1.855635812910   -0.421754386118
 C   -2.618495494417   -0.814364187090   -0.009754386118
 H   -2.996495494417   -0.787364187090   -1.047754386118
 H   -3.211495494417   -0.115364187090    0.606245613882
 H   -2.728495494417   -1.834364187090    0.390245613882
NA    4.183998268678   -4.803044401781    2.493931437017
