14

 P   -0.949535888849    1.128080584990   -0.581514979278
 O   -1.536535888849    2.178080584990    0.373485020722
 O   -1.215535888849    1.176080584990   -2.093514979278
 O    0.713464111151    0.954080584990   -0.294514979278
 O   -1.264535888849   -0.429919415010    0.010485020722
 C    1.450464111151    2.119080584990   -0.671514979278
 H    1.119464111151    3.002080584990   -0.095514979278
 H    1.335464111151    2.330080584990   -1.749514979278
 H    2.510464111151    1.917080584990   -0.451514979278
 C   -2.655535888849   -0.752919415010   -0.039514979278
 H   -3.033535888849   -0.725919415010   -1.077514979278
 H   -3.248535888849   -0.053919415010    0.576485020722
 H   -2.765535888849   -1.772919415010    0.360485020722
NA    4.385394941127   -5.137132977943    2.655746248241
