14

 P   -0.956943967736    1.140369539406   -0.587467097911
 O   -1.543943967736    2.190369539406    0.367532902089
 O   -1.222943967736    1.188369539406   -2.099467097911
 O    0.706056032264    0.966369539406   -0.300467097911
 O   -1.271943967736   -0.417630460594    0.004532902089
 C    1.443056032264    2.131369539406   -0.677467097911
 H    1.112056032264    3.014369539406   -0.101467097911
 H    1.328056032264    2.342369539406   -1.755467097911
 H    2.503056032264    1.929369539406   -0.457467097911
 C   -2.662943967736   -0.740630460594   -0.045467097911
 H   -3.040943967736   -0.713630460594   -1.083467097911
 H   -3.255943967736   -0.041630460594    0.570532902089
 H   -2.772943967736   -1.760630460594    0.354532902089
NA    4.425674275617   -5.203950693176    2.688109210486
