14

 P   -0.964352046622    1.152658493822   -0.593419216543
 O   -1.551352046622    2.202658493822    0.361580783457
 O   -1.230352046622    1.200658493822   -2.105419216543
 O    0.698647953378    0.978658493822   -0.306419216543
 O   -1.279352046622   -0.405341506178   -0.001419216543
 C    1.435647953378    2.143658493822   -0.683419216543
 H    1.104647953378    3.026658493822   -0.107419216543
 H    1.320647953378    2.354658493822   -1.761419216543
 H    2.495647953378    1.941658493822   -0.463419216543
 C   -2.670352046622   -0.728341506178   -0.051419216543
 H   -3.048352046622   -0.701341506178   -1.089419216543
 H   -3.263352046622   -0.029341506178    0.564580783457
 H   -2.780352046622   -1.748341506178    0.348580783457
NA    4.465953610107   -5.270768408408    2.720472172731
