14

 P   -0.971760125509    1.164947448238   -0.599371335175
 O   -1.558760125509    2.214947448238    0.355628664825
 O   -1.237760125509    1.212947448238   -2.111371335175
 O    0.691239874491    0.990947448238   -0.312371335175
 O   -1.286760125509   -0.393052551762   -0.007371335175
 C    1.428239874491    2.155947448238   -0.689371335175
 H    1.097239874491    3.038947448238   -0.113371335175
 H    1.313239874491    2.366947448238   -1.767371335175
 H    2.488239874491    1.953947448238   -0.469371335175
 C   -2.677760125509   -0.716052551762   -0.057371335175
 H   -3.055760125509   -0.689052551762   -1.095371335175
 H   -3.270760125509   -0.017052551762    0.558628664825
 H   -2.787760125509   -1.736052551762    0.342628664825
NA    4.506232944597   -5.337586123641    2.752835134975
