14

 P   -0.993984362168    1.201814311486   -0.617227691071
 O   -1.580984362168    2.251814311486    0.337772308929
 O   -1.259984362168    1.249814311486   -2.129227691071
 O    0.669015637832    1.027814311486   -0.330227691071
 O   -1.308984362168   -0.356185688514   -0.025227691071
 C    1.406015637832    2.192814311486   -0.707227691071
 H    1.075015637832    3.075814311486   -0.131227691071
 H    1.291015637832    2.403814311486   -1.785227691071
 H    2.466015637832    1.990814311486   -0.487227691071
 C   -2.699984362168   -0.679185688514   -0.075227691071
 H   -3.077984362168   -0.652185688514   -1.113227691071
 H   -3.292984362168    0.019814311486    0.540772308929
 H   -2.809984362168   -1.699185688514    0.324772308929
NA    4.627070948067   -5.538039269338    2.849924021710
