14

 P   -1.016208598827    1.238681174734   -0.635084046968
 O   -1.603208598827    2.288681174734    0.319915953032
 O   -1.282208598827    1.286681174734   -2.147084046968
 O    0.646791401173    1.064681174734   -0.348084046968
 O   -1.331208598827   -0.319318825266   -0.043084046968
 C    1.383791401173    2.229681174734   -0.725084046968
 H    1.052791401173    3.112681174734   -0.149084046968
 H    1.268791401173    2.440681174734   -1.803084046968
 H    2.443791401173    2.027681174734   -0.505084046968
 C   -2.722208598827   -0.642318825266   -0.093084046968
 H   -3.100208598827   -0.615318825266   -1.131084046968
 H   -3.315208598827    0.056681174734    0.522915953032
 H   -2.832208598827   -1.662318825266    0.306915953032
NA    4.747908951536   -5.738492415036    2.947012908444
