14

 P   -1.023616677713    1.250970129150   -0.641036165600
 O   -1.610616677713    2.300970129150    0.313963834400
 O   -1.289616677713    1.298970129150   -2.153036165600
 O    0.639383322287    1.076970129150   -0.354036165600
 O   -1.338616677713   -0.307029870850   -0.049036165600
 C    1.376383322287    2.241970129150   -0.731036165600
 H    1.045383322287    3.124970129150   -0.155036165600
 H    1.261383322287    2.452970129150   -1.809036165600
 H    2.436383322287    2.039970129150   -0.511036165600
 C   -2.729616677713   -0.630029870850   -0.099036165600
 H   -3.107616677713   -0.603029870850   -1.137036165600
 H   -3.322616677713    0.068970129150    0.516963834400
 H   -2.839616677713   -1.650029870850    0.300963834400
NA    4.788188286026   -5.805310130268    2.979375870688
