14

 P   -1.053248993259    1.300125946814   -0.664844640128
 O   -1.640248993259    2.350125946814    0.290155359872
 O   -1.319248993259    1.348125946814   -2.176844640128
 O    0.609751006741    1.126125946814   -0.377844640128
 O   -1.368248993259   -0.257874053186   -0.072844640128
 C    1.346751006741    2.291125946814   -0.754844640128
 H    1.015751006741    3.174125946814   -0.178844640128
 H    1.231751006741    2.502125946814   -1.832844640128
 H    2.406751006741    2.089125946814   -0.534844640128
 C   -2.759248993259   -0.580874053186   -0.122844640128
 H   -3.137248993259   -0.553874053186   -1.160844640128
 H   -3.352248993259    0.118125946814    0.493155359872
 H   -2.869248993259   -1.600874053186    0.277155359872
NA    4.949305623986   -6.072580991198    3.108827719667
