14

 P   -1.060657072146    1.312414901230   -0.670796758760
 O   -1.647657072146    2.362414901230    0.284203241240
 O   -1.326657072146    1.360414901230   -2.182796758760
 O    0.602342927854    1.138414901230   -0.383796758760
 O   -1.375657072146   -0.245585098770   -0.078796758760
 C    1.339342927854    2.303414901230   -0.760796758760
 H    1.008342927854    3.186414901230   -0.184796758760
 H    1.224342927854    2.514414901230   -1.838796758760
 H    2.399342927854    2.101414901230   -0.540796758760
 C   -2.766657072146   -0.568585098770   -0.128796758760
 H   -3.144657072146   -0.541585098770   -1.166796758760
 H   -3.359657072146    0.130414901230    0.487203241240
 H   -2.876657072146   -1.588585098770    0.271203241240
NA    4.989584958476   -6.139398706431    3.141190681912
