14

 P   -1.068065151032    1.324703855646   -0.676748877393
 O   -1.655065151032    2.374703855646    0.278251122607
 O   -1.334065151032    1.372703855646   -2.188748877393
 O    0.594934848968    1.150703855646   -0.389748877393
 O   -1.383065151032   -0.233296144354   -0.084748877393
 C    1.331934848968    2.315703855646   -0.766748877393
 H    1.000934848968    3.198703855646   -0.190748877393
 H    1.216934848968    2.526703855646   -1.844748877393
 H    2.391934848968    2.113703855646   -0.546748877393
 C   -2.774065151032   -0.556296144354   -0.134748877393
 H   -3.152065151032   -0.529296144354   -1.172748877393
 H   -3.367065151032    0.142703855646    0.481251122607
 H   -2.884065151032   -1.576296144354    0.265251122607
NA    5.029864292966   -6.206216421663    3.173553644157
