14

 P   -1.090289387691    1.361570718894   -0.694605233289
 O   -1.677289387691    2.411570718894    0.260394766711
 O   -1.356289387691    1.409570718894   -2.206605233289
 O    0.572710612309    1.187570718894   -0.407605233289
 O   -1.405289387691   -0.196429281106   -0.102605233289
 C    1.309710612309    2.352570718894   -0.784605233289
 H    0.978710612309    3.235570718894   -0.208605233289
 H    1.194710612309    2.563570718894   -1.862605233289
 H    2.369710612309    2.150570718894   -0.564605233289
 C   -2.796289387691   -0.519429281106   -0.152605233289
 H   -3.174289387691   -0.492429281106   -1.190605233289
 H   -3.389289387691    0.179570718894    0.463394766711
 H   -2.906289387691   -1.539429281106    0.247394766711
NA    5.150702296435   -6.406669567361    3.270642530891
