7

 C   -0.007904736104    1.185007961810   -0.431875014192
 O   -0.007904736104   -0.249878038190   -0.431875014192
 H    0.911105263896   -0.546679038190   -0.431875014192
 H   -1.061223736104    1.492996961810   -0.431875014192
 H    0.480761263896    1.595940961810    0.467564985808
 H    0.480761263896    1.595940961810   -1.331315014192
NA   -0.025944623403   -0.626100195849    0.601629436962
