7

 C   -0.007219426430    1.199300106762   -0.471136379118
 O   -0.007219426430   -0.235585893238   -0.471136379118
 H    0.911790573570   -0.532386893238   -0.471136379118
 H   -1.060538426430    1.507289106762   -0.471136379118
 H    0.481446573570    1.610233106762    0.428303620882
 H    0.481446573570    1.610233106762   -1.370576379118
NA   -0.026899303483   -0.646010065228    0.656323022140
