7

 C   -0.006534116756    1.213592251715   -0.510397744045
 O   -0.006534116756   -0.221293748285   -0.510397744045
 H    0.912475883244   -0.518094748285   -0.510397744045
 H   -1.059853116756    1.521581251715   -0.510397744045
 H    0.482131883244    1.624525251715    0.389042255955
 H    0.482131883244    1.624525251715   -1.409837744045
NA   -0.027853983564   -0.665919934608    0.711016607318
