7

 C   -0.004478187735    1.256468686574   -0.628181838824
 O   -0.004478187735   -0.178417313426   -0.628181838824
 H    0.914531812265   -0.475218313426   -0.628181838824
 H   -1.057797187735    1.564457686574   -0.628181838824
 H    0.484187812265    1.667401686574    0.271258161176
 H    0.484187812265    1.667401686574   -1.527621838824
NA   -0.030718023805   -0.725649542747    0.875097362853
