7

 C   -0.001736949039    1.313637266385   -0.785227298530
 O   -0.001736949039   -0.121248733615   -0.785227298530
 H    0.917273050961   -0.418049733615   -0.785227298530
 H   -1.055055949039    1.621626266385   -0.785227298530
 H    0.486929050961    1.724570266385    0.114212701470
 H    0.486929050961    1.724570266385   -1.684667298530
NA   -0.034536744127   -0.805289020266    1.093871703566
