7

 C    0.000318979983    1.356513701243   -0.903011393310
 O    0.000318979983   -0.078372298757   -0.903011393310
 H    0.919328979983   -0.375173298757   -0.903011393310
 H   -1.053000020017    1.664502701243   -0.903011393310
 H    0.488984979983    1.767446701243   -0.003571393310
 H    0.488984979983    1.767446701243   -1.802451393310
NA   -0.037400784368   -0.865018628406    1.257952459101
