7

 C    0.007172076723    1.499435150772   -1.295625042575
 O    0.007172076723    0.064549150772   -1.295625042575
 H    0.926182076723   -0.232251849228   -1.295625042575
 H   -1.046146923277    1.807424150772   -1.295625042575
 H    0.495838076723    1.910368150772   -0.396185042575
 H    0.495838076723    1.910368150772   -2.195065042575
NA   -0.046947585173   -1.064117322203    1.804888310885
