7

 C    0.008542696071    1.528019440677   -1.374147772428
 O    0.008542696071    0.093133440677   -1.374147772428
 H    0.927552696071   -0.203667559323   -1.374147772428
 H   -1.044776303929    1.836008440677   -1.374147772428
 H    0.497208696071    1.938952440677   -0.474707772428
 H    0.497208696071    1.938952440677   -2.273587772428
NA   -0.048856945333   -1.103937060963    1.914275481241
