7

 C    0.010598625093    1.570895875536   -1.491931867207
 O    0.010598625093    0.136009875536   -1.491931867207
 H    0.929608625093   -0.160791124464   -1.491931867207
 H   -1.042720374907    1.878884875536   -1.491931867207
 H    0.499264625093    1.981828875536   -0.592491867207
 H    0.499264625093    1.981828875536   -2.391371867207
NA   -0.051720985575   -1.163666669102    2.078356236776
