7

 C    0.011283934767    1.585188020488   -1.531193232134
 O    0.011283934767    0.150302020488   -1.531193232134
 H    0.930293934767   -0.146498979512   -1.531193232134
 H   -1.042035065233    1.893177020488   -1.531193232134
 H    0.499949934767    1.996121020488   -0.631753232134
 H    0.499949934767    1.996121020488   -2.430633232134
NA   -0.052675665655   -1.183576538482    2.133049821955
