7

 C    0.013339863789    1.628064455347   -1.648977326913
 O    0.013339863789    0.193178455347   -1.648977326913
 H    0.932349863789   -0.103622544653   -1.648977326913
 H   -1.039979136211    1.936053455347   -1.648977326913
 H    0.502005863789    2.038997455347   -0.749537326913
 H    0.502005863789    2.038997455347   -2.548417326913
NA   -0.055539705897   -1.243306146621    2.297130577490
