7

 C    0.016766412158    1.699525180111   -1.845284151546
 O    0.016766412158    0.264639180111   -1.845284151546
 H    0.935776412158   -0.032161819889   -1.845284151546
 H   -1.036552587842    2.007514180111   -1.845284151546
 H    0.505432412158    2.110458180111   -0.945844151546
 H    0.505432412158    2.110458180111   -2.744724151546
NA   -0.060313106299   -1.342855493520    2.570598503381
