7

 C    0.017451721832    1.713817325064   -1.884545516472
 O    0.017451721832    0.278931325064   -1.884545516472
 H    0.936461721832   -0.017869674936   -1.884545516472
 H   -1.035867278168    2.021806325064   -1.884545516472
 H    0.506117721832    2.124750325064   -0.985105516472
 H    0.506117721832    2.124750325064   -2.783985516472
NA   -0.061267786379   -1.362765362899    2.625292088559
