7

 C    0.020878270202    1.785278049828   -2.080852341105
 O    0.020878270202    0.350392049828   -2.080852341105
 H    0.939888270202    0.053591049828   -2.080852341105
 H   -1.032440729798    2.093267049828   -2.080852341105
 H    0.509544270202    2.196211049828   -1.181412341105
 H    0.509544270202    2.196211049828   -2.980292341105
NA   -0.066041186781   -1.462314709798    2.898760014451
