7

 C    0.022934199224    1.828154484686   -2.198636435884
 O    0.022934199224    0.393268484686   -2.198636435884
 H    0.941944199224    0.096467484686   -2.198636435884
 H   -1.030384800776    2.136143484686   -2.198636435884
 H    0.511600199224    2.239087484686   -1.299196435884
 H    0.511600199224    2.239087484686   -3.098076435884
NA   -0.068905227023   -1.522044317938    3.062840769986
