7

 C    0.023619508898    1.842446629639   -2.237897800811
 O    0.023619508898    0.407560629639   -2.237897800811
 H    0.942629508898    0.110759629639   -2.237897800811
 H   -1.029699491102    2.150435629639   -2.237897800811
 H    0.512285508898    2.253379629639   -1.338457800811
 H    0.512285508898    2.253379629639   -3.137337800811
NA   -0.069859907103   -1.541954187317    3.117534355164
