7

 C    0.025675437920    1.885323064497   -2.355681895590
 O    0.025675437920    0.450437064497   -2.355681895590
 H    0.944685437920    0.153636064497   -2.355681895590
 H   -1.027643562080    2.193312064497   -2.355681895590
 H    0.514341437920    2.296256064497   -1.456241895590
 H    0.514341437920    2.296256064497   -3.255121895590
NA   -0.072723947345   -1.601683795457    3.281615110699
