7

 C    0.039381631399    2.171165963554   -3.140909194120
 O    0.039381631399    0.736279963554   -3.140909194120
 H    0.958391631399    0.439478963554   -3.140909194120
 H   -1.013937368601    2.479154963554   -3.140909194120
 H    0.528047631399    2.582098963554   -2.241469194120
 H    0.528047631399    2.582098963554   -4.040349194120
NA   -0.091817548953   -1.999881183052    4.375486814266
