25

 C   -6.078055513093    0.065840372439    0.000000000000
 H   -7.171425513093    0.077050372439    0.000000000000
 C   -5.341515513093    1.267870372439    0.000000000000
 H   -5.869495513093    2.228770372439    0.000000000000
 C   -5.366285513093   -1.151019627561    0.000000000000
 H   -5.913855513093   -2.100899627561    0.000000000000
 C   -3.937545513093    1.254970372439    0.000000000000
 H   -3.371075513093    2.191990372439    0.000000000000
 C   -3.962365513093   -1.166799627561    0.000000000000
 H   -3.415135513093   -2.115199627561    0.000000000000
 C   -3.182975513093    0.036230372439    0.000000000000
 O   -1.879985513093    0.022700372439    0.000000000000
 K    0.479324486907   -0.005789627561    0.000000000000
 O    1.679237004920   -0.020279248526    0.000000000000
 C    2.982226746618   -0.033810568899    0.000000000000
 C    3.736801077417   -1.252543712659    0.000000000000
 H    3.170331362370   -2.189563277841    0.000000000000
 C    5.140771766531   -1.265448944561    0.000000000000
 H    5.668756448488   -2.226347032611    0.000000000000
 C    5.877305506486   -0.063415285503    0.000000000000
 H    6.970678100305   -0.074619569677    0.000000000000
 C    5.165541577224    1.153449118036    0.000000000000
 H    5.713101526077    2.103328616927    0.000000000000
 C    3.761620255090    1.169228894948    0.000000000000
 H    3.214384808366    2.117633221935    0.000000000000
