25

 C   -6.243413943702    0.067837168828    0.000000000000
 H   -7.336783943702    0.079047168828    0.000000000000
 C   -5.506873943702    1.269867168828    0.000000000000
 H   -6.034853943702    2.230767168828    0.000000000000
 C   -5.531643943702   -1.149022831172    0.000000000000
 H   -6.079213943702   -2.098902831172    0.000000000000
 C   -4.102903943702    1.256967168828    0.000000000000
 H   -3.536433943702    2.193987168828    0.000000000000
 C   -4.127723943702   -1.164802831172    0.000000000000
 H   -3.580493943702   -2.113202831172    0.000000000000
 C   -3.348333943702    0.038227168828    0.000000000000
 O   -2.045343943702    0.024697168828    0.000000000000
 K    0.313966056298   -0.003792831172    0.000000000000
 O    1.913849413649   -0.023112325792    0.000000000000
 C    3.216839155346   -0.036643646165    0.000000000000
 C    3.971413486146   -1.255376789925    0.000000000000
 H    3.404943771098   -2.192396355107    0.000000000000
 C    5.375384175259   -1.268282021827    0.000000000000
 H    5.903368857216   -2.229180109877    0.000000000000
 C    6.111917915214   -0.066248362769    0.000000000000
 H    7.205290509034   -0.077452646943    0.000000000000
 C    5.400153985952    1.150616040770    0.000000000000
 H    5.947713934805    2.100495539660    0.000000000000
 C    3.996232663819    1.166395817682    0.000000000000
 H    3.448997217094    2.114800144669    0.000000000000
