25

 C   -6.326093159007    0.068835567022    0.000000000000
 H   -7.419463159007    0.080045567022    0.000000000000
 C   -5.589553159007    1.270865567022    0.000000000000
 H   -6.117533159007    2.231765567022    0.000000000000
 C   -5.614323159007   -1.148024432978    0.000000000000
 H   -6.161893159007   -2.097904432978    0.000000000000
 C   -4.185583159007    1.257965567022    0.000000000000
 H   -3.619113159007    2.194985567022    0.000000000000
 C   -4.210403159007   -1.163804432978    0.000000000000
 H   -3.663173159007   -2.112204432978    0.000000000000
 C   -3.431013159007    0.039225567022    0.000000000000
 O   -2.128023159007    0.025695567022    0.000000000000
 K    0.231286840993   -0.002794432978    0.000000000000
 O    2.031155618013   -0.024528864425    0.000000000000
 C    3.334145359710   -0.038060184798    0.000000000000
 C    4.088719690510   -1.256793328558    0.000000000000
 H    3.522249975462   -2.193812893740    0.000000000000
 C    5.492690379623   -1.269698560460    0.000000000000
 H    6.020675061581   -2.230596648510    0.000000000000
 C    6.229224119578   -0.067664901403    0.000000000000
 H    7.322596713398   -0.078869185576    0.000000000000
 C    5.517460190316    1.149199502137    0.000000000000
 H    6.065020139170    2.099079001027    0.000000000000
 C    4.113538868183    1.164979279048    0.000000000000
 H    3.566303421458    2.113383606036    0.000000000000
