25

 C   -6.367432766659    0.069334766119    0.000000000000
 H   -7.460802766659    0.080544766119    0.000000000000
 C   -5.630892766659    1.271364766119    0.000000000000
 H   -6.158872766659    2.232264766119    0.000000000000
 C   -5.655662766659   -1.147525233881    0.000000000000
 H   -6.203232766659   -2.097405233881    0.000000000000
 C   -4.226922766659    1.258464766119    0.000000000000
 H   -3.660452766659    2.195484766119    0.000000000000
 C   -4.251742766659   -1.163305233881    0.000000000000
 H   -3.704512766659   -2.111705233881    0.000000000000
 C   -3.472352766659    0.039724766119    0.000000000000
 O   -2.169362766659    0.026194766119    0.000000000000
 K    0.189947233341   -0.002295233881    0.000000000000
 O    2.089808720195   -0.025237133741    0.000000000000
 C    3.392798461893   -0.038768454114    0.000000000000
 C    4.147372792692   -1.257501597874    0.000000000000
 H    3.580903077645   -2.194521163056    0.000000000000
 C    5.551343481805   -1.270406829777    0.000000000000
 H    6.079328163763   -2.231304917827    0.000000000000
 C    6.287877221760   -0.068373170719    0.000000000000
 H    7.381249815580   -0.079577454893    0.000000000000
 C    5.576113292499    1.148491232821    0.000000000000
 H    6.123673241352    2.098370731711    0.000000000000
 C    4.172191970365    1.164271009732    0.000000000000
 H    3.624956523641    2.112675336719    0.000000000000
