25

 C   -6.408772374311    0.069833965217    0.000000000000
 H   -7.502142374311    0.081043965217    0.000000000000
 C   -5.672232374311    1.271863965217    0.000000000000
 H   -6.200212374311    2.232763965217    0.000000000000
 C   -5.697002374311   -1.147026034783    0.000000000000
 H   -6.244572374311   -2.096906034783    0.000000000000
 C   -4.268262374311    1.258963965217    0.000000000000
 H   -3.701792374311    2.195983965217    0.000000000000
 C   -4.293082374311   -1.162806034783    0.000000000000
 H   -3.745852374311   -2.111206034783    0.000000000000
 C   -3.513692374311    0.040223965217    0.000000000000
 O   -2.210702374311    0.026693965217    0.000000000000
 K    0.148607625689   -0.001796034783    0.000000000000
 O    2.148461822377   -0.025945403058    0.000000000000
 C    3.451451564075   -0.039476723431    0.000000000000
 C    4.206025894874   -1.258209867191    0.000000000000
 H    3.639556179827   -2.195229432373    0.000000000000
 C    5.609996583987   -1.271115099093    0.000000000000
 H    6.137981265945   -2.232013187143    0.000000000000
 C    6.346530323942   -0.069081440036    0.000000000000
 H    7.439902917762   -0.080285724209    0.000000000000
 C    5.634766394681    1.147782963504    0.000000000000
 H    6.182326343534    2.097662462394    0.000000000000
 C    4.230845072547    1.163562740415    0.000000000000
 H    3.683609625823    2.111967067403    0.000000000000
