25

 C   -6.574130804920    0.071830761605    0.000000000000
 H   -7.667500804920    0.083040761605    0.000000000000
 C   -5.837590804920    1.273860761605    0.000000000000
 H   -6.365570804920    2.234760761605    0.000000000000
 C   -5.862360804920   -1.145029238395    0.000000000000
 H   -6.409930804920   -2.094909238395    0.000000000000
 C   -4.433620804920    1.260960761605    0.000000000000
 H   -3.867150804920    2.197980761605    0.000000000000
 C   -4.458440804920   -1.160809238395    0.000000000000
 H   -3.911210804920   -2.109209238395    0.000000000000
 C   -3.679050804920    0.042220761605    0.000000000000
 O   -2.376060804920    0.028690761605    0.000000000000
 K   -0.016750804920    0.000200761605    0.000000000000
 O    2.383074231106   -0.028778480324    0.000000000000
 C    3.686063972803   -0.042309800697    0.000000000000
 C    4.440638303602   -1.261042944457    0.000000000000
 H    3.874168588555   -2.198062509639    0.000000000000
 C    5.844608992716   -1.273948176359    0.000000000000
 H    6.372593674673   -2.234846264409    0.000000000000
 C    6.581142732671   -0.071914517302    0.000000000000
 H    7.674515326491   -0.083118801475    0.000000000000
 C    5.869378803409    1.144949886238    0.000000000000
 H    6.416938752262    2.094829385128    0.000000000000
 C    4.465457481276    1.160729663149    0.000000000000
 H    3.918222034551    2.109133990137    0.000000000000
