25

 C   -6.863508058487    0.075325155286    0.000000000000
 H   -7.956878058487    0.086535155286    0.000000000000
 C   -6.126968058487    1.277355155286    0.000000000000
 H   -6.654948058487    2.238255155286    0.000000000000
 C   -6.151738058487   -1.141534844714    0.000000000000
 H   -6.699308058487   -2.091414844714    0.000000000000
 C   -4.722998058487    1.264455155286    0.000000000000
 H   -4.156528058487    2.201475155286    0.000000000000
 C   -4.747818058487   -1.157314844714    0.000000000000
 H   -4.200588058487   -2.105714844714    0.000000000000
 C   -3.968428058487    0.045715155286    0.000000000000
 O   -2.665438058487    0.032185155286    0.000000000000
 K   -0.306128058487    0.003695155286    0.000000000000
 O    2.793645946380   -0.033736365540    0.000000000000
 C    4.096635688078   -0.047267685913    0.000000000000
 C    4.851210018877   -1.266000829673    0.000000000000
 H    4.284740303830   -2.203020394855    0.000000000000
 C    6.255180707990   -1.278906061575    0.000000000000
 H    6.783165389948   -2.239804149625    0.000000000000
 C    6.991714447945   -0.076872402517    0.000000000000
 H    8.085087041765   -0.088076686691    0.000000000000
 C    6.279950518684    1.139992001022    0.000000000000
 H    6.827510467537    2.089871499913    0.000000000000
 C    4.876029196550    1.155771777934    0.000000000000
 H    4.328793749826    2.104176104921    0.000000000000
