25

 C   -6.904847666139    0.075824354383    0.000000000000
 H   -7.998217666139    0.087034354383    0.000000000000
 C   -6.168307666139    1.277854354383    0.000000000000
 H   -6.696287666139    2.238754354383    0.000000000000
 C   -6.193077666139   -1.141035645617    0.000000000000
 H   -6.740647666139   -2.090915645617    0.000000000000
 C   -4.764337666139    1.264954354383    0.000000000000
 H   -4.197867666139    2.201974354383    0.000000000000
 C   -4.789157666139   -1.156815645617    0.000000000000
 H   -4.241927666139   -2.105215645617    0.000000000000
 C   -4.009767666139    0.046214354383    0.000000000000
 O   -2.706777666139    0.032684354383    0.000000000000
 K   -0.347467666139    0.004194354383    0.000000000000
 O    2.852299048562   -0.034444634856    0.000000000000
 C    4.155288790260   -0.047975955229    0.000000000000
 C    4.909863121059   -1.266709098989    0.000000000000
 H    4.343393406012   -2.203728664171    0.000000000000
 C    6.313833810173   -1.279614330892    0.000000000000
 H    6.841818492130   -2.240512418942    0.000000000000
 C    7.050367550128   -0.077580671834    0.000000000000
 H    8.143740143947   -0.088784956008    0.000000000000
 C    6.338603620866    1.139283731706    0.000000000000
 H    6.886163569719    2.089163230596    0.000000000000
 C    4.934682298733    1.155063508617    0.000000000000
 H    4.387446852008    2.103467835604    0.000000000000
