25

 C   -6.946187273791    0.076323553480    0.000000000000
 H   -8.039557273791    0.087533553480    0.000000000000
 C   -6.209647273791    1.278353553480    0.000000000000
 H   -6.737627273791    2.239253553480    0.000000000000
 C   -6.234417273791   -1.140536446520    0.000000000000
 H   -6.781987273791   -2.090416446520    0.000000000000
 C   -4.805677273791    1.265453553480    0.000000000000
 H   -4.239207273791    2.202473553480    0.000000000000
 C   -4.830497273791   -1.156316446520    0.000000000000
 H   -4.283267273791   -2.104716446520    0.000000000000
 C   -4.051107273791    0.046713553480    0.000000000000
 O   -2.748117273791    0.033183553480    0.000000000000
 K   -0.388807273791    0.004693553480    0.000000000000
 O    2.910952150744   -0.035152904173    0.000000000000
 C    4.213941892442   -0.048684224546    0.000000000000
 C    4.968516223241   -1.267417368306    0.000000000000
 H    4.402046508194   -2.204436933488    0.000000000000
 C    6.372486912355   -1.280322600208    0.000000000000
 H    6.900471594312   -2.241220688258    0.000000000000
 C    7.109020652310   -0.078288941150    0.000000000000
 H    8.202393246129   -0.089493225324    0.000000000000
 C    6.397256723048    1.138575462389    0.000000000000
 H    6.944816671901    2.088454961280    0.000000000000
 C    4.993335400915    1.154355239301    0.000000000000
 H    4.446099954190    2.102759566288    0.000000000000
