25

 C   -6.987526881444    0.076822752577    0.000000000000
 H   -8.080896881444    0.088032752577    0.000000000000
 C   -6.250986881444    1.278852752577    0.000000000000
 H   -6.778966881444    2.239752752577    0.000000000000
 C   -6.275756881444   -1.140037247423    0.000000000000
 H   -6.823326881444   -2.089917247423    0.000000000000
 C   -4.847016881444    1.265952752577    0.000000000000
 H   -4.280546881444    2.202972752577    0.000000000000
 C   -4.871836881444   -1.155817247423    0.000000000000
 H   -4.324606881444   -2.104217247423    0.000000000000
 C   -4.092446881444    0.047212752577    0.000000000000
 O   -2.789456881444    0.033682752577    0.000000000000
 K   -0.430146881444    0.005192752577    0.000000000000
 O    2.969605252927   -0.035861173489    0.000000000000
 C    4.272594994624   -0.049392493862    0.000000000000
 C    5.027169325423   -1.268125637622    0.000000000000
 H    4.460699610376   -2.205145202804    0.000000000000
 C    6.431140014537   -1.281030869525    0.000000000000
 H    6.959124696494   -2.241928957575    0.000000000000
 C    7.167673754492   -0.078997210467    0.000000000000
 H    8.261046348312   -0.090201494641    0.000000000000
 C    6.455909825230    1.137867193073    0.000000000000
 H    7.003469774083    2.087746691963    0.000000000000
 C    5.051988503097    1.153646969984    0.000000000000
 H    4.504753056372    2.102051296971    0.000000000000
