25

 C   -7.194224919705    0.079318748063    0.000000000000
 H   -8.287594919705    0.090528748063    0.000000000000
 C   -6.457684919705    1.281348748063    0.000000000000
 H   -6.985664919705    2.242248748063    0.000000000000
 C   -6.482454919705   -1.137541251937    0.000000000000
 H   -7.030024919705   -2.087421251937    0.000000000000
 C   -5.053714919705    1.268448748063    0.000000000000
 H   -4.487244919705    2.205468748063    0.000000000000
 C   -5.078534919705   -1.153321251937    0.000000000000
 H   -4.531304919705   -2.101721251937    0.000000000000
 C   -4.299144919705    0.049708748063    0.000000000000
 O   -2.996154919705    0.036178748063    0.000000000000
 K   -0.636844919705    0.007688748063    0.000000000000
 O    3.262870763837   -0.039402520072    0.000000000000
 C    4.565860505535   -0.052933840445    0.000000000000
 C    5.320434836334   -1.271666984205    0.000000000000
 H    4.753965121287   -2.208686549387    0.000000000000
 C    6.724405525447   -1.284572216107    0.000000000000
 H    7.252390207405   -2.245470304157    0.000000000000
 C    7.460939265402   -0.082538557050    0.000000000000
 H    8.554311859222   -0.093742841223    0.000000000000
 C    6.749175336141    1.134325846490    0.000000000000
 H    7.296735284994    2.084205345380    0.000000000000
 C    5.345254014007    1.150105623401    0.000000000000
 H    4.798018567283    2.098509950389    0.000000000000
