25

 C   -7.235564527357    0.079817947161    0.000000000000
 H   -8.328934527357    0.091027947161    0.000000000000
 C   -6.499024527357    1.281847947161    0.000000000000
 H   -7.027004527357    2.242747947161    0.000000000000
 C   -6.523794527357   -1.137042052839    0.000000000000
 H   -7.071364527357   -2.086922052839    0.000000000000
 C   -5.095054527357    1.268947947161    0.000000000000
 H   -4.528584527357    2.205967947161    0.000000000000
 C   -5.119874527357   -1.152822052839    0.000000000000
 H   -4.572644527357   -2.101222052839    0.000000000000
 C   -4.340484527357    0.050207947161    0.000000000000
 O   -3.037494527357    0.036677947161    0.000000000000
 K   -0.678184527357    0.008187947161    0.000000000000
 O    3.321523866019   -0.040110789388    0.000000000000
 C    4.624513607717   -0.053642109761    0.000000000000
 C    5.379087938516   -1.272375253521    0.000000000000
 H    4.812618223469   -2.209394818703    0.000000000000
 C    6.783058627629   -1.285280485424    0.000000000000
 H    7.311043309587   -2.246178573474    0.000000000000
 C    7.519592367584   -0.083246826366    0.000000000000
 H    8.612964961404   -0.094451110540    0.000000000000
 C    6.807828438323    1.133617577174    0.000000000000
 H    7.355388387176    2.083497076064    0.000000000000
 C    5.403907116189    1.149397354085    0.000000000000
 H    4.856671669465    2.097801681072    0.000000000000
