25

 C   -7.442262565619    0.082313942647    0.000000000000
 H   -8.535632565619    0.093523942647    0.000000000000
 C   -6.705722565619    1.284343942647    0.000000000000
 H   -7.233702565619    2.245243942647    0.000000000000
 C   -6.730492565619   -1.134546057353    0.000000000000
 H   -7.278062565619   -2.084426057353    0.000000000000
 C   -5.301752565619    1.271443942647    0.000000000000
 H   -4.735282565619    2.208463942647    0.000000000000
 C   -5.326572565619   -1.150326057353    0.000000000000
 H   -4.779342565619   -2.098726057353    0.000000000000
 C   -4.547182565619    0.052703942647    0.000000000000
 O   -3.244192565619    0.039173942647    0.000000000000
 K   -0.884882565619    0.010683942647    0.000000000000
 O    3.614789376930   -0.043652135971    0.000000000000
 C    4.917779118627   -0.057183456344    0.000000000000
 C    5.672353449427   -1.275916600104    0.000000000000
 H    5.105883734379   -2.212936165286    0.000000000000
 C    7.076324138540   -1.288821832006    0.000000000000
 H    7.604308820497   -2.249719920056    0.000000000000
 C    7.812857878495   -0.086788172949    0.000000000000
 H    8.906230472315   -0.097992457122    0.000000000000
 C    7.101093949233    1.130076230591    0.000000000000
 H    7.648653898086    2.079955729481    0.000000000000
 C    5.697172627100    1.145856007502    0.000000000000
 H    5.149937180375    2.094260334490    0.000000000000
