25

 C   -7.566281388576    0.083811539938    0.000000000000
 H   -8.659651388576    0.095021539938    0.000000000000
 C   -6.829741388576    1.285841539938    0.000000000000
 H   -7.357721388576    2.246741539938    0.000000000000
 C   -6.854511388576   -1.133048460062    0.000000000000
 H   -7.402081388576   -2.082928460062    0.000000000000
 C   -5.425771388576    1.272941539938    0.000000000000
 H   -4.859301388576    2.209961539938    0.000000000000
 C   -5.450591388576   -1.148828460062    0.000000000000
 H   -4.903361388576   -2.097228460062    0.000000000000
 C   -4.671201388576    0.054201539938    0.000000000000
 O   -3.368211388576    0.040671539938    0.000000000000
 K   -1.008901388576    0.012181539938    0.000000000000
 O    3.790748683476   -0.045776943921    0.000000000000
 C    5.093738425174   -0.059308264294    0.000000000000
 C    5.848312755973   -1.278041408053    0.000000000000
 H    5.281843040925   -2.215060973236    0.000000000000
 C    7.252283445086   -1.290946639956    0.000000000000
 H    7.780268127044   -2.251844728006    0.000000000000
 C    7.988817185041   -0.088912980898    0.000000000000
 H    9.082189778861   -0.100117265072    0.000000000000
 C    7.277053255780    1.127951422641    0.000000000000
 H    7.824613204633    2.077830921532    0.000000000000
 C    5.873131933646    1.143731199553    0.000000000000
 H    5.325896486921    2.092135526540    0.000000000000
