25

 C   -7.731639819185    0.085808336327    0.000000000000
 H   -8.825009819185    0.097018336327    0.000000000000
 C   -6.995099819185    1.287838336327    0.000000000000
 H   -7.523079819185    2.248738336327    0.000000000000
 C   -7.019869819185   -1.131051663673    0.000000000000
 H   -7.567439819185   -2.080931663673    0.000000000000
 C   -5.591129819185    1.274938336327    0.000000000000
 H   -5.024659819185    2.211958336327    0.000000000000
 C   -5.615949819185   -1.146831663673    0.000000000000
 H   -5.068719819185   -2.095231663673    0.000000000000
 C   -4.836559819185    0.056198336327    0.000000000000
 O   -3.533569819185    0.042668336327    0.000000000000
 K   -1.174259819185    0.014178336327    0.000000000000
 O    4.025361092204   -0.048610021187    0.000000000000
 C    5.328350833902   -0.062141341560    0.000000000000
 C    6.082925164701   -1.280874485320    0.000000000000
 H    5.516455449654   -2.217894050502    0.000000000000
 C    7.486895853815   -1.293779717222    0.000000000000
 H    8.014880535772   -2.254677805272    0.000000000000
 C    8.223429593770   -0.091746058164    0.000000000000
 H    9.316802187589   -0.102950342338    0.000000000000
 C    7.511665664508    1.125118345375    0.000000000000
 H    8.059225613361    2.074997844266    0.000000000000
 C    6.107744342375    1.140898122287    0.000000000000
 H    5.560508895650    2.089302449274    0.000000000000
