25

 C   -7.814319034490    0.086806734521    0.000000000000
 H   -8.907689034490    0.098016734521    0.000000000000
 C   -7.077779034490    1.288836734521    0.000000000000
 H   -7.605759034490    2.249736734521    0.000000000000
 C   -7.102549034490   -1.130053265479    0.000000000000
 H   -7.650119034490   -2.079933265479    0.000000000000
 C   -5.673809034490    1.275936734521    0.000000000000
 H   -5.107339034490    2.212956734521    0.000000000000
 C   -5.698629034490   -1.145833265479    0.000000000000
 H   -5.151399034490   -2.094233265479    0.000000000000
 C   -4.919239034490    0.057196734521    0.000000000000
 O   -3.616249034490    0.043666734521    0.000000000000
 K   -1.256939034490    0.015176734521    0.000000000000
 O    4.142667296569   -0.050026559820    0.000000000000
 C    5.445657038266   -0.063557880193    0.000000000000
 C    6.200231369065   -1.282291023953    0.000000000000
 H    5.633761654018   -2.219310589135    0.000000000000
 C    7.604202058179   -1.295196255855    0.000000000000
 H    8.132186740136   -2.256094343905    0.000000000000
 C    8.340735798134   -0.093162596797    0.000000000000
 H    9.434108391954   -0.104366880971    0.000000000000
 C    7.628971868872    1.123701806742    0.000000000000
 H    8.176531817725    2.073581305633    0.000000000000
 C    6.225050546739    1.139481583654    0.000000000000
 H    5.677815100014    2.087885910641    0.000000000000
