25

 C   -7.855658642142    0.087305933619    0.000000000000
 H   -8.949028642142    0.098515933619    0.000000000000
 C   -7.119118642142    1.289335933619    0.000000000000
 H   -7.647098642142    2.250235933619    0.000000000000
 C   -7.143888642142   -1.129554066381    0.000000000000
 H   -7.691458642142   -2.079434066381    0.000000000000
 C   -5.715148642142    1.276435933619    0.000000000000
 H   -5.148678642142    2.213455933619    0.000000000000
 C   -5.739968642142   -1.145334066381    0.000000000000
 H   -5.192738642142   -2.093734066381    0.000000000000
 C   -4.960578642142    0.057695933619    0.000000000000
 O   -3.657588642142    0.044165933619    0.000000000000
 K   -1.298278642142    0.015675933619    0.000000000000
 O    4.201320398751   -0.050734829136    0.000000000000
 C    5.504310140448   -0.064266149509    0.000000000000
 C    6.258884471248   -1.282999293269    0.000000000000
 H    5.692414756200   -2.220018858451    0.000000000000
 C    7.662855160361   -1.295904525172    0.000000000000
 H    8.190839842319   -2.256802613222    0.000000000000
 C    8.399388900316   -0.093870866114    0.000000000000
 H    9.492761494136   -0.105075150288    0.000000000000
 C    7.687624971054    1.122993537426    0.000000000000
 H    8.235184919907    2.072873036316    0.000000000000
 C    6.283703648921    1.138773314337    0.000000000000
 H    5.736468202196    2.087177641324    0.000000000000
