25

 C   -7.896998249795    0.087805132716    0.000000000000
 H   -8.990368249795    0.099015132716    0.000000000000
 C   -7.160458249795    1.289835132716    0.000000000000
 H   -7.688438249795    2.250735132716    0.000000000000
 C   -7.185228249795   -1.129054867284    0.000000000000
 H   -7.732798249795   -2.078934867284    0.000000000000
 C   -5.756488249795    1.276935132716    0.000000000000
 H   -5.190018249795    2.213955132716    0.000000000000
 C   -5.781308249795   -1.144834867284    0.000000000000
 H   -5.234078249795   -2.093234867284    0.000000000000
 C   -5.001918249795    0.058195132716    0.000000000000
 O   -3.698928249795    0.044665132716    0.000000000000
 K   -1.339618249795    0.016175132716    0.000000000000
 O    4.259973500933   -0.051443098453    0.000000000000
 C    5.562963242630   -0.064974418826    0.000000000000
 C    6.317537573430   -1.283707562586    0.000000000000
 H    5.751067858382   -2.220727127768    0.000000000000
 C    7.721508262543   -1.296612794488    0.000000000000
 H    8.249492944501   -2.257510882538    0.000000000000
 C    8.458042002498   -0.094579135430    0.000000000000
 H    9.551414596318   -0.105783419604    0.000000000000
 C    7.746278073236    1.122285268109    0.000000000000
 H    8.293838022089    2.072164767000    0.000000000000
 C    6.342356751103    1.138065045021    0.000000000000
 H    5.795121304378    2.086469372008    0.000000000000
