25

 C   -8.103696288056    0.090301128202    0.000000000000
 H   -9.197066288056    0.101511128202    0.000000000000
 C   -7.367156288056    1.292331128202    0.000000000000
 H   -7.895136288056    2.253231128202    0.000000000000
 C   -7.391926288056   -1.126558871798    0.000000000000
 H   -7.939496288056   -2.076438871798    0.000000000000
 C   -5.963186288056    1.279431128202    0.000000000000
 H   -5.396716288056    2.216451128202    0.000000000000
 C   -5.988006288056   -1.142338871798    0.000000000000
 H   -5.440776288056   -2.090738871798    0.000000000000
 C   -5.208616288056    0.060691128202    0.000000000000
 O   -3.905626288056    0.047161128202    0.000000000000
 K   -1.546316288056    0.018671128202    0.000000000000
 O    4.553239011843   -0.054984445035    0.000000000000
 C    5.856228753541   -0.068515765408    0.000000000000
 C    6.610803084340   -1.287248909168    0.000000000000
 H    6.044333369293   -2.224268474350    0.000000000000
 C    8.014773773454   -1.300154141071    0.000000000000
 H    8.542758455411   -2.261052229121    0.000000000000
 C    8.751307513409   -0.098120482013    0.000000000000
 H    9.844680107228   -0.109324766187    0.000000000000
 C    8.039543584147    1.118743921527    0.000000000000
 H    8.587103533000    2.068623420417    0.000000000000
 C    6.635622262014    1.134523698438    0.000000000000
 H    6.088386815289    2.082928025425    0.000000000000
