25

 C   -8.186375503361    0.091299526396    0.000000000000
 H   -9.279745503361    0.102509526396    0.000000000000
 C   -7.449835503361    1.293329526396    0.000000000000
 H   -7.977815503361    2.254229526396    0.000000000000
 C   -7.474605503361   -1.125560473604    0.000000000000
 H   -8.022175503361   -2.075440473604    0.000000000000
 C   -6.045865503361    1.280429526396    0.000000000000
 H   -5.479395503361    2.217449526396    0.000000000000
 C   -6.070685503361   -1.141340473604    0.000000000000
 H   -5.523455503361   -2.089740473604    0.000000000000
 C   -5.291295503361    0.061689526396    0.000000000000
 O   -3.988305503361    0.048159526396    0.000000000000
 K   -1.628995503361    0.019669526396    0.000000000000
 O    4.670545216208   -0.056400983668    0.000000000000
 C    5.973534957905   -0.069932304042    0.000000000000
 C    6.728109288704   -1.288665447801    0.000000000000
 H    6.161639573657   -2.225685012984    0.000000000000
 C    8.132079977818   -1.301570679704    0.000000000000
 H    8.660064659775   -2.262468767754    0.000000000000
 C    8.868613717773   -0.099537020646    0.000000000000
 H    9.961986311593   -0.110741304820    0.000000000000
 C    8.156849788511    1.117327382894    0.000000000000
 H    8.704409737364    2.067206881784    0.000000000000
 C    6.752928466378    1.133107159805    0.000000000000
 H    6.205693019653    2.081511486792    0.000000000000
