25

 C   -8.227715111013    0.091798725493    0.000000000000
 H   -9.321085111013    0.103008725493    0.000000000000
 C   -7.491175111013    1.293828725493    0.000000000000
 H   -8.019155111013    2.254728725493    0.000000000000
 C   -7.515945111013   -1.125061274507    0.000000000000
 H   -8.063515111013   -2.074941274507    0.000000000000
 C   -6.087205111013    1.280928725493    0.000000000000
 H   -5.520735111013    2.217948725493    0.000000000000
 C   -6.112025111013   -1.140841274507    0.000000000000
 H   -5.564795111013   -2.089241274507    0.000000000000
 C   -5.332635111013    0.062188725493    0.000000000000
 O   -4.029645111013    0.048658725493    0.000000000000
 K   -1.670335111013    0.020168725493    0.000000000000
 O    4.729198318390   -0.057109252985    0.000000000000
 C    6.032188060087   -0.070640573358    0.000000000000
 C    6.786762390886   -1.289373717118    0.000000000000
 H    6.220292675839   -2.226393282300    0.000000000000
 C    8.190733080000   -1.302278949020    0.000000000000
 H    8.718717761957   -2.263177037070    0.000000000000
 C    8.927266819955   -0.100245289963    0.000000000000
 H   10.020639413775   -0.111449574136    0.000000000000
 C    8.215502890693    1.116619113577    0.000000000000
 H    8.763062839546    2.066498612467    0.000000000000
 C    6.811581568560    1.132398890488    0.000000000000
 H    6.264346121835    2.080803217476    0.000000000000
