25

 C   -8.269054718665    0.092297924591    0.000000000000
 H   -9.362424718665    0.103507924591    0.000000000000
 C   -7.532514718665    1.294327924591    0.000000000000
 H   -8.060494718665    2.255227924591    0.000000000000
 C   -7.557284718665   -1.124562075409    0.000000000000
 H   -8.104854718665   -2.074442075409    0.000000000000
 C   -6.128544718665    1.281427924591    0.000000000000
 H   -5.562074718665    2.218447924591    0.000000000000
 C   -6.153364718665   -1.140342075409    0.000000000000
 H   -5.606134718665   -2.088742075409    0.000000000000
 C   -5.373974718665    0.062687924591    0.000000000000
 O   -4.070984718665    0.049157924591    0.000000000000
 K   -1.711674718665    0.020667924591    0.000000000000
 O    4.787851420572   -0.057817522301    0.000000000000
 C    6.090841162269   -0.071348842675    0.000000000000
 C    6.845415493069   -1.290081986434    0.000000000000
 H    6.278945778021   -2.227101551617    0.000000000000
 C    8.249386182182   -1.302987218337    0.000000000000
 H    8.777370864140   -2.263885306387    0.000000000000
 C    8.985919922137   -0.100953559279    0.000000000000
 H   10.079292515957   -0.112157843453    0.000000000000
 C    8.274155992875    1.115910844261    0.000000000000
 H    8.821715941728    2.065790343151    0.000000000000
 C    6.870234670742    1.131690621172    0.000000000000
 H    6.322999224017    2.080094948159    0.000000000000
