25

 C   -8.310394326318    0.092797123688    0.000000000000
 H   -9.403764326318    0.104007123688    0.000000000000
 C   -7.573854326318    1.294827123688    0.000000000000
 H   -8.101834326318    2.255727123688    0.000000000000
 C   -7.598624326318   -1.124062876312    0.000000000000
 H   -8.146194326318   -2.073942876312    0.000000000000
 C   -6.169884326318    1.281927123688    0.000000000000
 H   -5.603414326318    2.218947123688    0.000000000000
 C   -6.194704326318   -1.139842876312    0.000000000000
 H   -5.647474326318   -2.088242876312    0.000000000000
 C   -5.415314326318    0.063187123688    0.000000000000
 O   -4.112324326318    0.049657123688    0.000000000000
 K   -1.753014326318    0.021167123688    0.000000000000
 O    4.846504522754   -0.058525791618    0.000000000000
 C    6.149494264451   -0.072057111991    0.000000000000
 C    6.904068595251   -1.290790255751    0.000000000000
 H    6.337598880203   -2.227809820933    0.000000000000
 C    8.308039284364   -1.303695487653    0.000000000000
 H    8.836023966322   -2.264593575703    0.000000000000
 C    9.044573024319   -0.101661828596    0.000000000000
 H   10.137945618139   -0.112866112769    0.000000000000
 C    8.332809095057    1.115202574944    0.000000000000
 H    8.880369043910    2.065082073834    0.000000000000
 C    6.928887772924    1.130982351855    0.000000000000
 H    6.381652326199    2.079386678843    0.000000000000
