25

 C   -8.351733933970    0.093296322785    0.000000000000
 H   -9.445103933970    0.104506322785    0.000000000000
 C   -7.615193933970    1.295326322785    0.000000000000
 H   -8.143173933970    2.256226322785    0.000000000000
 C   -7.639963933970   -1.123563677215    0.000000000000
 H   -8.187533933970   -2.073443677215    0.000000000000
 C   -6.211223933970    1.282426322785    0.000000000000
 H   -5.644753933970    2.219446322785    0.000000000000
 C   -6.236043933970   -1.139343677215    0.000000000000
 H   -5.688813933970   -2.087743677215    0.000000000000
 C   -5.456653933970    0.063686322785    0.000000000000
 O   -4.153663933970    0.050156322785    0.000000000000
 K   -1.794353933970    0.021666322785    0.000000000000
 O    4.905157624936   -0.059234060934    0.000000000000
 C    6.208147366633   -0.072765381308    0.000000000000
 C    6.962721697433   -1.291498525067    0.000000000000
 H    6.396251982385   -2.228518090250    0.000000000000
 C    8.366692386546   -1.304403756970    0.000000000000
 H    8.894677068504   -2.265301845020    0.000000000000
 C    9.103226126501   -0.102370097912    0.000000000000
 H   10.196598720321   -0.113574382086    0.000000000000
 C    8.391462197239    1.114494305628    0.000000000000
 H    8.939022146093    2.064373804518    0.000000000000
 C    6.987540875106    1.130274082539    0.000000000000
 H    6.440305428381    2.078678409526    0.000000000000
