25

 C   -8.517092364579    0.095293119174    0.000000000000
 H   -9.610462364579    0.106503119174    0.000000000000
 C   -7.780552364579    1.297323119174    0.000000000000
 H   -8.308532364579    2.258223119174    0.000000000000
 C   -7.805322364579   -1.121566880826    0.000000000000
 H   -8.352892364579   -2.071446880826    0.000000000000
 C   -6.376582364579    1.284423119174    0.000000000000
 H   -5.810112364579    2.221443119174    0.000000000000
 C   -6.401402364579   -1.137346880826    0.000000000000
 H   -5.854172364579   -2.085746880826    0.000000000000
 C   -5.622012364579    0.065683119174    0.000000000000
 O   -4.319022364579    0.052153119174    0.000000000000
 K   -1.959712364579    0.023663119174    0.000000000000
 O    5.139770033664   -0.062067138201    0.000000000000
 C    6.442759775362   -0.075598458574    0.000000000000
 C    7.197334106161   -1.294331602334    0.000000000000
 H    6.630864391114   -2.231351167516    0.000000000000
 C    8.601304795275   -1.307236834236    0.000000000000
 H    9.129289477232   -2.268134922286    0.000000000000
 C    9.337838535230   -0.105203175178    0.000000000000
 H   10.431211129049   -0.116407459352    0.000000000000
 C    8.626074605968    1.111661228361    0.000000000000
 H    9.173634554821    2.061540727252    0.000000000000
 C    7.222153283835    1.127441005273    0.000000000000
 H    6.674917837110    2.075845332260    0.000000000000
