25

 C   -8.889148833450    0.099785911049    0.000000000000
 H   -9.982518833450    0.110995911049    0.000000000000
 C   -8.152608833450    1.301815911049    0.000000000000
 H   -8.680588833450    2.262715911049    0.000000000000
 C   -8.177378833450   -1.117074088951    0.000000000000
 H   -8.724948833450   -2.066954088951    0.000000000000
 C   -6.748638833450    1.288915911049    0.000000000000
 H   -6.182168833450    2.225935911049    0.000000000000
 C   -6.773458833450   -1.132854088951    0.000000000000
 H   -6.226228833450   -2.081254088951    0.000000000000
 C   -5.994068833450    0.070175911049    0.000000000000
 O   -4.691078833450    0.056645911049    0.000000000000
 K   -2.331768833450    0.028155911049    0.000000000000
 O    5.667647953303   -0.068441562049    0.000000000000
 C    6.970637695001   -0.081972882422    0.000000000000
 C    7.725212025800   -1.300706026182    0.000000000000
 H    7.158742310753   -2.237725591364    0.000000000000
 C    9.129182714914   -1.313611258085    0.000000000000
 H    9.657167396871   -2.274509346135    0.000000000000
 C    9.865716454869   -0.111577599027    0.000000000000
 H   10.959089048688   -0.122781883201    0.000000000000
 C    9.153952525607    1.105286804513    0.000000000000
 H    9.701512474460    2.055166303403    0.000000000000
 C    7.750031203473    1.121066581424    0.000000000000
 H    7.202795756749    2.069470908411    0.000000000000
