25

 C   -8.930488441102    0.100285110146    0.000000000000
 H  -10.023858441102    0.111495110146    0.000000000000
 C   -8.193948441102    1.302315110146    0.000000000000
 H   -8.721928441102    2.263215110146    0.000000000000
 C   -8.218718441102   -1.116574889854    0.000000000000
 H   -8.766288441102   -2.066454889854    0.000000000000
 C   -6.789978441102    1.289415110146    0.000000000000
 H   -6.223508441102    2.226435110146    0.000000000000
 C   -6.814798441102   -1.132354889854    0.000000000000
 H   -6.267568441102   -2.080754889854    0.000000000000
 C   -6.035408441102    0.070675110146    0.000000000000
 O   -4.732418441102    0.057145110146    0.000000000000
 K   -2.373108441102    0.028655110146    0.000000000000
 O    5.726301055485   -0.069149831366    0.000000000000
 C    7.029290797183   -0.082681151739    0.000000000000
 C    7.783865127982   -1.301414295499    0.000000000000
 H    7.217395412935   -2.238433860681    0.000000000000
 C    9.187835817096   -1.314319527401    0.000000000000
 H    9.715820499053   -2.275217615451    0.000000000000
 C    9.924369557051   -0.112285868344    0.000000000000
 H   11.017742150870   -0.123490152517    0.000000000000
 C    9.212605627789    1.104578535196    0.000000000000
 H    9.760165576642    2.054458034086    0.000000000000
 C    7.808684305656    1.120358312107    0.000000000000
 H    7.261448858931    2.068762639095    0.000000000000
