25

 C   -9.013167656407    0.101283508340    0.000000000000
 H  -10.106537656407    0.112493508340    0.000000000000
 C   -8.276627656407    1.303313508340    0.000000000000
 H   -8.804607656407    2.264213508340    0.000000000000
 C   -8.301397656407   -1.115576491660    0.000000000000
 H   -8.848967656407   -2.065456491660    0.000000000000
 C   -6.872657656407    1.290413508340    0.000000000000
 H   -6.306187656407    2.227433508340    0.000000000000
 C   -6.897477656407   -1.131356491660    0.000000000000
 H   -6.350247656407   -2.079756491660    0.000000000000
 C   -6.118087656407    0.071673508340    0.000000000000
 O   -4.815097656407    0.058143508340    0.000000000000
 K   -2.455787656407    0.029653508340    0.000000000000
 O    5.843607259850   -0.070566369999    0.000000000000
 C    7.146597001547   -0.084097690372    0.000000000000
 C    7.901171332346   -1.302830834132    0.000000000000
 H    7.334701617299   -2.239850399314    0.000000000000
 C    9.305142021460   -1.315736066034    0.000000000000
 H    9.833126703417   -2.276634154084    0.000000000000
 C   10.041675761415   -0.113702406977    0.000000000000
 H   11.135048355235   -0.124906691150    0.000000000000
 C    9.329911832153    1.103161996563    0.000000000000
 H    9.877471781006    2.053041495453    0.000000000000
 C    7.925990510020    1.118941773474    0.000000000000
 H    7.378755063295    2.067346100462    0.000000000000
