25

 C   -9.137186479364    0.102781105632    0.000000000000
 H  -10.230556479364    0.113991105632    0.000000000000
 C   -8.400646479364    1.304811105632    0.000000000000
 H   -8.928626479364    2.265711105632    0.000000000000
 C   -8.425416479364   -1.114078894368    0.000000000000
 H   -8.972986479364   -2.063958894368    0.000000000000
 C   -6.996676479364    1.291911105632    0.000000000000
 H   -6.430206479364    2.228931105632    0.000000000000
 C   -7.021496479364   -1.129858894368    0.000000000000
 H   -6.474266479364   -2.078258894368    0.000000000000
 C   -6.242106479364    0.073171105632    0.000000000000
 O   -4.939116479364    0.059641105632    0.000000000000
 K   -2.579806479364    0.031151105632    0.000000000000
 O    6.019566566396   -0.072691177948    0.000000000000
 C    7.322556308093   -0.086222498322    0.000000000000
 C    8.077130638893   -1.304955642081    0.000000000000
 H    7.510660923845   -2.241975207264    0.000000000000
 C    9.481101328006   -1.317860873984    0.000000000000
 H   10.009086009964   -2.278758962034    0.000000000000
 C   10.217635067961   -0.115827214926    0.000000000000
 H   11.311007661781   -0.127031499100    0.000000000000
 C    9.505871138699    1.101037188614    0.000000000000
 H   10.053431087553    2.050916687504    0.000000000000
 C    8.101949816566    1.116816965525    0.000000000000
 H    7.554714369841    2.065221292512    0.000000000000
