25

 C   -9.261205302321    0.104278702923    0.000000000000
 H  -10.354575302321    0.115488702923    0.000000000000
 C   -8.524665302321    1.306308702923    0.000000000000
 H   -9.052645302321    2.267208702923    0.000000000000
 C   -8.549435302321   -1.112581297077    0.000000000000
 H   -9.097005302321   -2.062461297077    0.000000000000
 C   -7.120695302321    1.293408702923    0.000000000000
 H   -6.554225302321    2.230428702923    0.000000000000
 C   -7.145515302321   -1.128361297077    0.000000000000
 H   -6.598285302321   -2.076761297077    0.000000000000
 C   -6.366125302321    0.074668702923    0.000000000000
 O   -5.063135302321    0.061138702923    0.000000000000
 K   -2.703825302321    0.032648702923    0.000000000000
 O    6.195525872942   -0.074815985898    0.000000000000
 C    7.498515614640   -0.088347306271    0.000000000000
 C    8.253089945439   -1.307080450031    0.000000000000
 H    7.686620230392   -2.244100015213    0.000000000000
 C    9.657060634552   -1.319985681934    0.000000000000
 H   10.185045316510   -2.280883769984    0.000000000000
 C   10.393594374507   -0.117952022876    0.000000000000
 H   11.486966968327   -0.129156307050    0.000000000000
 C    9.681830445246    1.098912380664    0.000000000000
 H   10.229390394099    2.048791879554    0.000000000000
 C    8.277909123112    1.114692157575    0.000000000000
 H    7.730673676388    2.063096484562    0.000000000000
