25

 C   -9.343884517625    0.105277101118    0.000000000000
 H  -10.437254517625    0.116487101118    0.000000000000
 C   -8.607344517625    1.307307101118    0.000000000000
 H   -9.135324517625    2.268207101118    0.000000000000
 C   -8.632114517625   -1.111582898882    0.000000000000
 H   -9.179684517625   -2.061462898882    0.000000000000
 C   -7.203374517625    1.294407101118    0.000000000000
 H   -6.636904517625    2.231427101118    0.000000000000
 C   -7.228194517625   -1.127362898882    0.000000000000
 H   -6.680964517625   -2.075762898882    0.000000000000
 C   -6.448804517625    0.075667101118    0.000000000000
 O   -5.145814517625    0.062137101118    0.000000000000
 K   -2.786504517625    0.033647101118    0.000000000000
 O    6.312832077306   -0.076232524531    0.000000000000
 C    7.615821819004   -0.089763844904    0.000000000000
 C    8.370396149803   -1.308496988664    0.000000000000
 H    7.803926434756   -2.245516553846    0.000000000000
 C    9.774366838917   -1.321402220567    0.000000000000
 H   10.302351520874   -2.282300308617    0.000000000000
 C   10.510900578872   -0.119368561509    0.000000000000
 H   11.604273172691   -0.130572845683    0.000000000000
 C    9.799136649610    1.097495842031    0.000000000000
 H   10.346696598463    2.047375340921    0.000000000000
 C    8.395215327477    1.113275618942    0.000000000000
 H    7.847979880752    2.061679945929    0.000000000000
