25

 C   -9.467903340582    0.106774698409    0.000000000000
 H  -10.561273340582    0.117984698409    0.000000000000
 C   -8.731363340582    1.308804698409    0.000000000000
 H   -9.259343340582    2.269704698409    0.000000000000
 C   -8.756133340582   -1.110085301591    0.000000000000
 H   -9.303703340582   -2.059965301591    0.000000000000
 C   -7.327393340582    1.295904698409    0.000000000000
 H   -6.760923340582    2.232924698409    0.000000000000
 C   -7.352213340582   -1.125865301591    0.000000000000
 H   -6.804983340582   -2.074265301591    0.000000000000
 C   -6.572823340582    0.077164698409    0.000000000000
 O   -5.269833340582    0.063634698409    0.000000000000
 K   -2.910523340582    0.035144698409    0.000000000000
 O    6.488791383853   -0.078357332481    0.000000000000
 C    7.791781125550   -0.091888652854    0.000000000000
 C    8.546355456350   -1.310621796614    0.000000000000
 H    7.979885741302   -2.247641361796    0.000000000000
 C    9.950326145463   -1.323527028516    0.000000000000
 H   10.478310827421   -2.284425116566    0.000000000000
 C   10.686859885418   -0.121493369458    0.000000000000
 H   11.780232479238   -0.132697653632    0.000000000000
 C    9.975095956156    1.095371034081    0.000000000000
 H   10.522655905009    2.045250532972    0.000000000000
 C    8.571174634023    1.111150810993    0.000000000000
 H    8.023939187298    2.059555137980    0.000000000000
