25

 C   -9.591922163539    0.108272295701    0.000000000000
 H  -10.685292163539    0.119482295701    0.000000000000
 C   -8.855382163539    1.310302295701    0.000000000000
 H   -9.383362163539    2.271202295701    0.000000000000
 C   -8.880152163539   -1.108587704299    0.000000000000
 H   -9.427722163539   -2.058467704299    0.000000000000
 C   -7.451412163539    1.297402295701    0.000000000000
 H   -6.884942163539    2.234422295701    0.000000000000
 C   -7.476232163539   -1.124367704299    0.000000000000
 H   -6.929002163539   -2.072767704299    0.000000000000
 C   -6.696842163539    0.078662295701    0.000000000000
 O   -5.393852163539    0.065132295701    0.000000000000
 K   -3.034542163539    0.036642295701    0.000000000000
 O    6.664750690399   -0.080482140430    0.000000000000
 C    7.967740432097   -0.094013460803    0.000000000000
 C    8.722314762896   -1.312746604563    0.000000000000
 H    8.155845047849   -2.249766169745    0.000000000000
 C   10.126285452009   -1.325651836466    0.000000000000
 H   10.654270133967   -2.286549924516    0.000000000000
 C   10.862819191964   -0.123618177408    0.000000000000
 H   11.956191785784   -0.134822461582    0.000000000000
 C   10.151055262703    1.093246226132    0.000000000000
 H   10.698615211556    2.043125725022    0.000000000000
 C    8.747133940569    1.109026003043    0.000000000000
 H    8.199898493845    2.057430330030    0.000000000000
