25

 C   -9.633261771192    0.108771494798    0.000000000000
 H  -10.726631771192    0.119981494798    0.000000000000
 C   -8.896721771192    1.310801494798    0.000000000000
 H   -9.424701771192    2.271701494798    0.000000000000
 C   -8.921491771192   -1.108088505202    0.000000000000
 H   -9.469061771192   -2.057968505202    0.000000000000
 C   -7.492751771192    1.297901494798    0.000000000000
 H   -6.926281771192    2.234921494798    0.000000000000
 C   -7.517571771192   -1.123868505202    0.000000000000
 H   -6.970341771192   -2.072268505202    0.000000000000
 C   -6.738181771192    0.079161494798    0.000000000000
 O   -5.435191771192    0.065631494798    0.000000000000
 K   -3.075881771192    0.037141494798    0.000000000000
 O    6.723403792581   -0.081190409747    0.000000000000
 C    8.026393534279   -0.094721730120    0.000000000000
 C    8.780967865078   -1.313454873880    0.000000000000
 H    8.214498150031   -2.250474439062    0.000000000000
 C   10.184938554191   -1.326360105782    0.000000000000
 H   10.712923236149   -2.287258193832    0.000000000000
 C   10.921472294146   -0.124326446724    0.000000000000
 H   12.014844887966   -0.135530730898    0.000000000000
 C   10.209708364885    1.092537956815    0.000000000000
 H   10.757268313738    2.042417455706    0.000000000000
 C    8.805787042751    1.108317733727    0.000000000000
 H    8.258551596027    2.056722060714    0.000000000000
