25

 C   -9.674601378844    0.109270693895    0.000000000000
 H  -10.767971378844    0.120480693895    0.000000000000
 C   -8.938061378844    1.311300693895    0.000000000000
 H   -9.466041378844    2.272200693895    0.000000000000
 C   -8.962831378844   -1.107589306105    0.000000000000
 H   -9.510401378844   -2.057469306105    0.000000000000
 C   -7.534091378844    1.298400693895    0.000000000000
 H   -6.967621378844    2.235420693895    0.000000000000
 C   -7.558911378844   -1.123369306105    0.000000000000
 H   -7.011681378844   -2.071769306105    0.000000000000
 C   -6.779521378844    0.079660693895    0.000000000000
 O   -5.476531378844    0.066130693895    0.000000000000
 K   -3.117221378844    0.037640693895    0.000000000000
 O    6.782056894763   -0.081898679063    0.000000000000
 C    8.085046636461   -0.095429999436    0.000000000000
 C    8.839620967260   -1.314163143196    0.000000000000
 H    8.273151252213   -2.251182708378    0.000000000000
 C   10.243591656373   -1.327068375099    0.000000000000
 H   10.771576338331   -2.287966463149    0.000000000000
 C   10.980125396328   -0.125034716041    0.000000000000
 H   12.073497990148   -0.136239000215    0.000000000000
 C   10.268361467067    1.091829687499    0.000000000000
 H   10.815921415920    2.041709186389    0.000000000000
 C    8.864440144933    1.107609464410    0.000000000000
 H    8.317204698209    2.056013791397    0.000000000000
