9

 C   -0.246608140695   -2.024028720302    0.000000000000
 H   -1.225535140695   -1.532240720302    0.000000000000
 H   -0.139462140695   -2.663837720302    0.888272000000
 H   -0.139462140695   -2.663837720302   -0.888272000000
 C    0.838018859305   -0.978444720302    0.000000000000
 O    0.676914859305    0.231106279698    0.000000000000
 O    2.080304859305   -1.555452720302    0.000000000000
 H    2.714840859305   -0.816889720302    0.000000000000
RB   -0.617326233291    0.764903988793    0.000000000000
