9

 C   -0.138285783997   -2.068705269501    0.000000000000
 H   -1.117212783997   -1.576917269501    0.000000000000
 H   -0.031139783997   -2.708514269501    0.888272000000
 H   -0.031139783997   -2.708514269501   -0.888272000000
 C    0.946341216003   -1.023121269501    0.000000000000
 O    0.785237216003    0.186429730499    0.000000000000
 O    2.188627216003   -1.600129269501    0.000000000000
 H    2.823163216003   -0.861566269501    0.000000000000
RB   -0.693895461249    0.796484255179    0.000000000000
