9

 C   -0.084124605648   -2.091043544101    0.000000000000
 H   -1.063051605648   -1.599255544101    0.000000000000
 H    0.023021394352   -2.730852544101    0.888272000000
 H    0.023021394352   -2.730852544101   -0.888272000000
 C    1.000502394352   -1.045459544101    0.000000000000
 O    0.839398394352    0.164091455899    0.000000000000
 O    2.242788394352   -1.622467544101    0.000000000000
 H    2.877324394352   -0.883904544101    0.000000000000
RB   -0.732180075229    0.812274388372    0.000000000000
