9

 C   -0.029963427299   -2.113381818701    0.000000000000
 H   -1.008890427299   -1.621593818701    0.000000000000
 H    0.077182572701   -2.753190818701    0.888272000000
 H    0.077182572701   -2.753190818701   -0.888272000000
 C    1.054663572701   -1.067797818701    0.000000000000
 O    0.893559572701    0.141753181299    0.000000000000
 O    2.296949572701   -1.644805818701    0.000000000000
 H    2.931485572701   -0.906242818701    0.000000000000
RB   -0.770464689208    0.828064521565    0.000000000000
