9

 C    0.024197751050   -2.135720093300    0.000000000000
 H   -0.954729248950   -1.643932093300    0.000000000000
 H    0.131343751050   -2.775529093300    0.888272000000
 H    0.131343751050   -2.775529093300   -0.888272000000
 C    1.108824751050   -1.090136093300    0.000000000000
 O    0.947720751050    0.119414906700    0.000000000000
 O    2.351110751050   -1.667144093300    0.000000000000
 H    2.985646751050   -0.928581093300    0.000000000000
RB   -0.808749303187    0.843854654758    0.000000000000
