9

 C    0.240842464446   -2.225073191699    0.000000000000
 H   -0.738084535554   -1.733285191699    0.000000000000
 H    0.347988464446   -2.864882191699    0.888272000000
 H    0.347988464446   -2.864882191699   -0.888272000000
 C    1.325469464446   -1.179489191699    0.000000000000
 O    1.164365464446    0.030061808301    0.000000000000
 O    2.567755464446   -1.756497191699    0.000000000000
 H    3.202291464446   -1.017934191699    0.000000000000
RB   -0.961887759105    0.907015187529    0.000000000000
