9

 C    0.403325999493   -2.292088015498    0.000000000000
 H   -0.575601000507   -1.800300015498    0.000000000000
 H    0.510471999493   -2.931897015498    0.888272000000
 H    0.510471999493   -2.931897015498   -0.888272000000
 C    1.487952999493   -1.246504015498    0.000000000000
 O    1.326848999493   -0.036953015498    0.000000000000
 O    2.730238999493   -1.823512015498    0.000000000000
 H    3.364774999493   -1.084949015498    0.000000000000
RB   -1.076741601043    0.954385587108    0.000000000000
