9

 C    0.511648356191   -2.336764564697    0.000000000000
 H   -0.467278643809   -1.844976564697    0.000000000000
 H    0.618794356191   -2.976573564697    0.888272000000
 H    0.618794356191   -2.976573564697   -0.888272000000
 C    1.596275356191   -1.291180564697    0.000000000000
 O    1.435171356191   -0.081629564697    0.000000000000
 O    2.838561356191   -1.868188564697    0.000000000000
 H    3.473097356191   -1.129625564697    0.000000000000
RB   -1.153310829001    0.985965853493    0.000000000000
