9

 C    0.782454247936   -2.448455937696    0.000000000000
 H   -0.196472752064   -1.956667937696    0.000000000000
 H    0.889600247936   -3.088264937696    0.888272000000
 H    0.889600247936   -3.088264937696   -0.888272000000
 C    1.867081247936   -1.402871937696    0.000000000000
 O    1.705977247936   -0.193320937696    0.000000000000
 O    3.109367247936   -1.979879937696    0.000000000000
 H    3.743903247936   -1.241316937696    0.000000000000
RB   -1.344733898898    1.064916519458    0.000000000000
