9

 C    0.890776604634   -2.493132486895    0.000000000000
 H   -0.088150395366   -2.001344486895    0.000000000000
 H    0.997922604634   -3.132941486895    0.888272000000
 H    0.997922604634   -3.132941486895   -0.888272000000
 C    1.975403604634   -1.447548486895    0.000000000000
 O    1.814299604634   -0.237997486895    0.000000000000
 O    3.217689604634   -2.024556486895    0.000000000000
 H    3.852225604634   -1.285993486895    0.000000000000
RB   -1.421303126857    1.096496785843    0.000000000000
