9

 C    0.999098961332   -2.537809036094    0.000000000000
 H    0.020171961332   -2.046021036094    0.000000000000
 H    1.106244961332   -3.177618036094    0.888272000000
 H    1.106244961332   -3.177618036094   -0.888272000000
 C    2.083725961332   -1.492225036094    0.000000000000
 O    1.922621961332   -0.282674036094    0.000000000000
 O    3.326011961332   -2.069233036094    0.000000000000
 H    3.960547961332   -1.330670036094    0.000000000000
RB   -1.497872354815    1.128077052229    0.000000000000
