9

 C    1.215743674727   -2.627162134493    0.000000000000
 H    0.236816674727   -2.135374134493    0.000000000000
 H    1.322889674727   -3.266971134493    0.888272000000
 H    1.322889674727   -3.266971134493   -0.888272000000
 C    2.300370674727   -1.581578134493    0.000000000000
 O    2.139266674727   -0.372027134493    0.000000000000
 O    3.542656674727   -2.158586134493    0.000000000000
 H    4.177192674727   -1.420023134493    0.000000000000
RB   -1.651010810733    1.191237585001    0.000000000000
