9

 C    1.324066031425   -2.671838683692    0.000000000000
 H    0.345139031425   -2.180050683692    0.000000000000
 H    1.431212031425   -3.311647683692    0.888272000000
 H    1.431212031425   -3.311647683692   -0.888272000000
 C    2.408693031425   -1.626254683692    0.000000000000
 O    2.247589031425   -0.416703683692    0.000000000000
 O    3.650979031425   -2.203262683692    0.000000000000
 H    4.285515031425   -1.464699683692    0.000000000000
RB   -1.727580038691    1.222817851386    0.000000000000
