9

 C    1.649033101519   -2.805868331290    0.000000000000
 H    0.670106101519   -2.314080331290    0.000000000000
 H    1.756179101519   -3.445677331290    0.888272000000
 H    1.756179101519   -3.445677331290   -0.888272000000
 C    2.733660101519   -1.760284331290    0.000000000000
 O    2.572556101519   -0.550733331290    0.000000000000
 O    3.975946101519   -2.337292331290    0.000000000000
 H    4.610482101519   -1.598729331290    0.000000000000
RB   -1.957287722567    1.317558650544    0.000000000000
