9

 C    1.757355458217   -2.850544880490    0.000000000000
 H    0.778428458217   -2.358756880490    0.000000000000
 H    1.864501458217   -3.490353880490    0.888272000000
 H    1.864501458217   -3.490353880490   -0.888272000000
 C    2.841982458217   -1.804960880490    0.000000000000
 O    2.680878458217   -0.595409880490    0.000000000000
 O    4.084268458217   -2.381968880490    0.000000000000
 H    4.718804458217   -1.643405880490    0.000000000000
RB   -2.033856950526    1.349138916929    0.000000000000
