9

 C    1.811516636566   -2.872883155089    0.000000000000
 H    0.832589636566   -2.381095155089    0.000000000000
 H    1.918662636566   -3.512692155089    0.888272000000
 H    1.918662636566   -3.512692155089   -0.888272000000
 C    2.896143636566   -1.827299155089    0.000000000000
 O    2.735039636566   -0.617748155089    0.000000000000
 O    4.138429636566   -2.404307155089    0.000000000000
 H    4.772965636566   -1.665744155089    0.000000000000
RB   -2.072141564505    1.364929050122    0.000000000000
