9

 C    1.865677814915   -2.895221429689    0.000000000000
 H    0.886750814915   -2.403433429689    0.000000000000
 H    1.972823814915   -3.535030429689    0.888272000000
 H    1.972823814915   -3.535030429689   -0.888272000000
 C    2.950304814915   -1.849637429689    0.000000000000
 O    2.789200814915   -0.640086429689    0.000000000000
 O    4.192590814915   -2.426645429689    0.000000000000
 H    4.827126814915   -1.688082429689    0.000000000000
RB   -2.110426178485    1.380719183315    0.000000000000
