9

 C    2.028161349962   -2.962236253488    0.000000000000
 H    1.049234349962   -2.470448253488    0.000000000000
 H    2.135307349962   -3.602045253488    0.888272000000
 H    2.135307349962   -3.602045253488   -0.888272000000
 C    3.112788349962   -1.916652253488    0.000000000000
 O    2.951684349962   -0.707101253488    0.000000000000
 O    4.355074349962   -2.493660253488    0.000000000000
 H    4.989610349962   -1.755097253488    0.000000000000
RB   -2.225280020423    1.428089582894    0.000000000000
