9

 C    2.082322528311   -2.984574528088    0.000000000000
 H    1.103395528311   -2.492786528088    0.000000000000
 H    2.189468528311   -3.624383528088    0.888272000000
 H    2.189468528311   -3.624383528088   -0.888272000000
 C    3.166949528311   -1.938990528088    0.000000000000
 O    3.005845528311   -0.729439528088    0.000000000000
 O    4.409235528311   -2.515998528088    0.000000000000
 H    5.043771528311   -1.777435528088    0.000000000000
RB   -2.263564634402    1.443879716086    0.000000000000
