9

 C    2.244806063358   -3.051589351887    0.000000000000
 H    1.265879063358   -2.559801351887    0.000000000000
 H    2.351952063358   -3.691398351887    0.888272000000
 H    2.351952063358   -3.691398351887   -0.888272000000
 C    3.329433063358   -2.006005351887    0.000000000000
 O    3.168329063358   -0.796454351887    0.000000000000
 O    4.571719063358   -2.583013351887    0.000000000000
 H    5.206255063358   -1.844450351887    0.000000000000
RB   -2.378418476340    1.491250115665    0.000000000000
