9

 C    2.515611955103   -3.163280724885    0.000000000000
 H    1.536684955103   -2.671492724885    0.000000000000
 H    2.622757955103   -3.803089724885    0.888272000000
 H    2.622757955103   -3.803089724885   -0.888272000000
 C    3.600238955103   -2.117696724885    0.000000000000
 O    3.439134955103   -0.908145724885    0.000000000000
 O    4.842524955103   -2.694704724885    0.000000000000
 H    5.477060955103   -1.956141724885    0.000000000000
RB   -2.569841546237    1.570200781629    0.000000000000
