9

 C    2.569773133451   -3.185618999485    0.000000000000
 H    1.590846133451   -2.693830999485    0.000000000000
 H    2.676919133451   -3.825427999485    0.888272000000
 H    2.676919133451   -3.825427999485   -0.888272000000
 C    3.654400133451   -2.140034999485    0.000000000000
 O    3.493296133451   -0.930483999485    0.000000000000
 O    4.896686133451   -2.717042999485    0.000000000000
 H    5.531222133451   -1.978479999485    0.000000000000
RB   -2.608126160216    1.585990914822    0.000000000000
