9

 C    2.894740203545   -3.319648647083    0.000000000000
 H    1.915813203545   -2.827860647083    0.000000000000
 H    3.001886203545   -3.959457647083    0.888272000000
 H    3.001886203545   -3.959457647083   -0.888272000000
 C    3.979367203545   -2.274064647083    0.000000000000
 O    3.818263203545   -1.064513647083    0.000000000000
 O    5.221653203545   -2.851072647083    0.000000000000
 H    5.856189203545   -2.112509647083    0.000000000000
RB   -2.837833844092    1.680731713979    0.000000000000
