9

 C    3.165546095290   -3.431340020081    0.000000000000
 H    2.186619095290   -2.939552020081    0.000000000000
 H    3.272692095290   -4.071149020081    0.888272000000
 H    3.272692095290   -4.071149020081   -0.888272000000
 C    4.250173095290   -2.385756020081    0.000000000000
 O    4.089069095290   -1.176205020081    0.000000000000
 O    5.492459095290   -2.962764020081    0.000000000000
 H    6.126995095290   -2.224201020081    0.000000000000
RB   -3.029256913989    1.759682379944    0.000000000000
