9

 C    3.328029630337   -3.498354843880    0.000000000000
 H    2.349102630337   -3.006566843880    0.000000000000
 H    3.435175630337   -4.138163843880    0.888272000000
 H    3.435175630337   -4.138163843880   -0.888272000000
 C    4.412656630337   -2.452770843880    0.000000000000
 O    4.251552630337   -1.243219843880    0.000000000000
 O    5.654942630337   -3.029778843880    0.000000000000
 H    6.289478630337   -2.291215843880    0.000000000000
RB   -3.144110755927    1.807052779522    0.000000000000
