9

 C    3.382190808686   -3.520693118480    0.000000000000
 H    2.403263808686   -3.028905118480    0.000000000000
 H    3.489336808686   -4.160502118480    0.888272000000
 H    3.489336808686   -4.160502118480   -0.888272000000
 C    4.466817808686   -2.475109118480    0.000000000000
 O    4.305713808686   -1.265558118480    0.000000000000
 O    5.709103808686   -3.052117118480    0.000000000000
 H    6.343639808686   -2.313554118480    0.000000000000
RB   -3.182395369906    1.822842912715    0.000000000000
