9

 C    3.490513165384   -3.565369667679    0.000000000000
 H    2.511586165384   -3.073581667679    0.000000000000
 H    3.597659165384   -4.205178667679    0.888272000000
 H    3.597659165384   -4.205178667679   -0.888272000000
 C    4.575140165384   -2.519785667679    0.000000000000
 O    4.414036165384   -1.310234667679    0.000000000000
 O    5.817426165384   -3.096793667679    0.000000000000
 H    6.451962165384   -2.358230667679    0.000000000000
RB   -3.258964597865    1.854423179101    0.000000000000
