9

 C    3.598835522082   -3.610046216878    0.000000000000
 H    2.619908522082   -3.118258216878    0.000000000000
 H    3.705981522082   -4.249855216878    0.888272000000
 H    3.705981522082   -4.249855216878   -0.888272000000
 C    4.683462522082   -2.564462216878    0.000000000000
 O    4.522358522082   -1.354911216878    0.000000000000
 O    5.925748522082   -3.141470216878    0.000000000000
 H    6.560284522082   -2.402907216878    0.000000000000
RB   -3.335533825823    1.886003445487    0.000000000000
