9

 C    3.815480235478   -3.699399315277    0.000000000000
 H    2.836553235478   -3.207611315277    0.000000000000
 H    3.922626235478   -4.339208315277    0.888272000000
 H    3.922626235478   -4.339208315277   -0.888272000000
 C    4.900107235478   -2.653815315277    0.000000000000
 O    4.739003235478   -1.444264315277    0.000000000000
 O    6.142393235478   -3.230823315277    0.000000000000
 H    6.776929235478   -2.492260315277    0.000000000000
RB   -3.488672281741    1.949163978258    0.000000000000
