9

 C    3.923802592176   -3.744075864476    0.000000000000
 H    2.944875592176   -3.252287864476    0.000000000000
 H    4.030948592176   -4.383884864476    0.888272000000
 H    4.030948592176   -4.383884864476   -0.888272000000
 C    5.008429592176   -2.698491864476    0.000000000000
 O    4.847325592176   -1.488940864476    0.000000000000
 O    6.250715592176   -3.275499864476    0.000000000000
 H    6.885251592176   -2.536936864476    0.000000000000
RB   -3.565241509699    1.980744244644    0.000000000000
