9

 C    3.977963770525   -3.766414139076    0.000000000000
 H    2.999036770525   -3.274626139076    0.000000000000
 H    4.085109770525   -4.406223139076    0.888272000000
 H    4.085109770525   -4.406223139076   -0.888272000000
 C    5.062590770525   -2.720830139076    0.000000000000
 O    4.901486770525   -1.511279139076    0.000000000000
 O    6.304876770525   -3.297838139076    0.000000000000
 H    6.939412770525   -2.559275139076    0.000000000000
RB   -3.603526123679    1.996534377837    0.000000000000
