9

 C    4.086286127222   -3.811090688275    0.000000000000
 H    3.107359127222   -3.319302688275    0.000000000000
 H    4.193432127222   -4.450899688275    0.888272000000
 H    4.193432127222   -4.450899688275   -0.888272000000
 C    5.170913127222   -2.765506688275    0.000000000000
 O    5.009809127222   -1.555955688275    0.000000000000
 O    6.413199127222   -3.342514688275    0.000000000000
 H    7.047735127222   -2.603951688275    0.000000000000
RB   -3.680095351637    2.028114644222    0.000000000000
