11

 C   -1.096245781489   -0.328744081278   -1.243915226548
 H   -1.916502781489   -1.041042081278   -1.243915226548
 C   -1.096245781489    1.054329918722   -1.243915226548
 H   -1.916502781489    1.766627918722   -1.243915226548
 N    0.229788218511   -0.716327081278   -1.243915226548
 H    0.565607218511   -1.677757081278   -1.243915226548
 N    0.229788218511    1.441912918722   -1.243915226548
 H    0.565607218511    2.403342918722   -1.243915226548
 C    1.035322218511    0.362792918722   -1.243915226548
 H    2.121451218511    0.362792918722   -1.243915226548
CL    0.229788218511   -0.716327081278    2.456084773452
