11

 C   -1.096245781489   -0.328744081278   -2.622307774885
 H   -1.916502781489   -1.041042081278   -2.622307774885
 C   -1.096245781489    1.054329918722   -2.622307774885
 H   -1.916502781489    1.766627918722   -2.622307774885
 N    0.229788218511   -0.716327081278   -2.622307774885
 H    0.565607218511   -1.677757081278   -2.622307774885
 N    0.229788218511    1.441912918722   -2.622307774885
 H    0.565607218511    2.403342918722   -2.622307774885
 C    1.035322218511    0.362792918722   -2.622307774885
 H    2.121451218511    0.362792918722   -2.622307774885
CL    0.229788218511   -0.716327081278    5.177692225115
