11

 C   -1.096245781489   -0.328744081278   -3.059359070699
 H   -1.916502781489   -1.041042081278   -3.059359070699
 C   -1.096245781489    1.054329918722   -3.059359070699
 H   -1.916502781489    1.766627918722   -3.059359070699
 N    0.229788218511   -0.716327081278   -3.059359070699
 H    0.565607218511   -1.677757081278   -3.059359070699
 N    0.229788218511    1.441912918722   -3.059359070699
 H    0.565607218511    2.403342918722   -3.059359070699
 C    1.035322218511    0.362792918722   -3.059359070699
 H    2.121451218511    0.362792918722   -3.059359070699
CL    0.229788218511   -0.716327081278    6.040640929301
