14

 C   -0.080845949315   -2.096847420898    0.000000000000
 H   -0.073123949315   -3.190022420898    0.000000000000
 C    1.129630050685   -1.377008420898    0.000000000000
 H    2.084649050685   -1.910707420898    0.000000000000
 C   -1.300669949315   -1.396841420898    0.000000000000
 H   -2.248801949315   -1.942653420898    0.000000000000
 C    1.127222050685    0.028136579102    0.000000000000
 H    2.058576050685    0.600675579102    0.000000000000
 C   -1.314520949315    0.010639579102    0.000000000000
 H   -2.266519949315    0.553360579102    0.000000000000
 C   -0.098243949315    0.718421579102    0.000000000000
 O   -0.037696949315    2.098882579102    0.000000000000
 H   -0.940827949315    2.447309579102    0.000000000000
LI    1.204246617655    2.745083922696    0.000000000000
