14

 C   -0.099322238095   -2.106460903307    0.000000000000
 H   -0.091600238095   -3.199635903307    0.000000000000
 C    1.111153761905   -1.386621903307    0.000000000000
 H    2.066172761905   -1.920320903307    0.000000000000
 C   -1.319146238095   -1.406454903307    0.000000000000
 H   -2.267278238095   -1.952266903307    0.000000000000
 C    1.108745761905    0.018523096693    0.000000000000
 H    2.040099761905    0.591062096693    0.000000000000
 C   -1.332997238095    0.001026096693    0.000000000000
 H   -2.284996238095    0.543747096693    0.000000000000
 C   -0.116720238095    0.708808096693    0.000000000000
 O   -0.056173238095    2.089269096693    0.000000000000
 H   -0.959304238095    2.437696096693    0.000000000000
LI    1.451901093225    2.873942156772    0.000000000000
