14

 C   -0.105481001021   -2.109665397444    0.000000000000
 H   -0.097759001021   -3.202840397444    0.000000000000
 C    1.104994998979   -1.389826397444    0.000000000000
 H    2.060013998979   -1.923525397444    0.000000000000
 C   -1.325305001021   -1.409659397444    0.000000000000
 H   -2.273437001021   -1.955471397444    0.000000000000
 C    1.102586998979    0.015318602556    0.000000000000
 H    2.033940998979    0.587857602556    0.000000000000
 C   -1.339156001021   -0.002178397444    0.000000000000
 H   -2.291155001021    0.540542602556    0.000000000000
 C   -0.122879001021    0.705603602556    0.000000000000
 O   -0.062332001021    2.086064602556    0.000000000000
 H   -0.965463001021    2.434491602556    0.000000000000
LI    1.534452585082    2.916894901463    0.000000000000
