14

 C   -0.123957289801   -2.119278879853    0.000000000000
 H   -0.116235289801   -3.212453879853    0.000000000000
 C    1.086518710199   -1.399439879853    0.000000000000
 H    2.041537710199   -1.933138879853    0.000000000000
 C   -1.343781289801   -1.419272879853    0.000000000000
 H   -2.291913289801   -1.965084879853    0.000000000000
 C    1.084110710199    0.005705120147    0.000000000000
 H    2.015464710199    0.578244120147    0.000000000000
 C   -1.357632289801   -0.011791879853    0.000000000000
 H   -2.309631289801    0.530929120147    0.000000000000
 C   -0.141355289801    0.695990120147    0.000000000000
 O   -0.080808289801    2.076451120147    0.000000000000
 H   -0.983939289801    2.424878120147    0.000000000000
LI    1.782107060653    3.045753135539    0.000000000000
