14

 C   -0.148592341508   -2.132096856399    0.000000000000
 H   -0.140870341508   -3.225271856399    0.000000000000
 C    1.061883658492   -1.412257856399    0.000000000000
 H    2.016902658492   -1.945956856399    0.000000000000
 C   -1.368416341508   -1.432090856399    0.000000000000
 H   -2.316548341508   -1.977902856399    0.000000000000
 C    1.059475658492   -0.007112856399    0.000000000000
 H    1.990829658492    0.565426143601    0.000000000000
 C   -1.382267341508   -0.024609856399    0.000000000000
 H   -2.334266341508    0.518111143601    0.000000000000
 C   -0.165990341508    0.683172143601    0.000000000000
 O   -0.105443341508    2.063633143601    0.000000000000
 H   -1.008574341508    2.412060143601    0.000000000000
LI    2.112313028080    3.217564114306    0.000000000000
