14

 C   -0.160909867361   -2.138505844671    0.000000000000
 H   -0.153187867361   -3.231680844671    0.000000000000
 C    1.049566132639   -1.418666844671    0.000000000000
 H    2.004585132639   -1.952365844671    0.000000000000
 C   -1.380733867361   -1.438499844671    0.000000000000
 H   -2.328865867361   -1.984311844671    0.000000000000
 C    1.047158132639   -0.013521844671    0.000000000000
 H    1.978512132639    0.559017155329    0.000000000000
 C   -1.394584867361   -0.031018844671    0.000000000000
 H   -2.346583867361    0.511702155329    0.000000000000
 C   -0.178307867361    0.676763155329    0.000000000000
 O   -0.117760867361    2.057224155329    0.000000000000
 H   -1.020891867361    2.405651155329    0.000000000000
LI    2.277416011794    3.303469603690    0.000000000000
