14

 C   -0.173227393215   -2.144914832944    0.000000000000
 H   -0.165505393215   -3.238089832944    0.000000000000
 C    1.037248606785   -1.425075832944    0.000000000000
 H    1.992267606785   -1.958774832944    0.000000000000
 C   -1.393051393215   -1.444908832944    0.000000000000
 H   -2.341183393215   -1.990720832944    0.000000000000
 C    1.034840606785   -0.019930832944    0.000000000000
 H    1.966194606785    0.552608167056    0.000000000000
 C   -1.406902393215   -0.037427832944    0.000000000000
 H   -2.358901393215    0.505293167056    0.000000000000
 C   -0.190625393215    0.670354167056    0.000000000000
 O   -0.130078393215    2.050815167056    0.000000000000
 H   -1.033209393215    2.399242167056    0.000000000000
LI    2.442518995508    3.389375093073    0.000000000000
