14

 C   -0.197862444921   -2.157732809490    0.000000000000
 H   -0.190140444921   -3.250907809490    0.000000000000
 C    1.012613555079   -1.437893809490    0.000000000000
 H    1.967632555079   -1.971592809490    0.000000000000
 C   -1.417686444921   -1.457726809490    0.000000000000
 H   -2.365818444921   -2.003538809490    0.000000000000
 C    1.010205555079   -0.032748809490    0.000000000000
 H    1.941559555079    0.539790190510    0.000000000000
 C   -1.431537444921   -0.050245809490    0.000000000000
 H   -2.383536444921    0.492475190510    0.000000000000
 C   -0.215260444921    0.657536190510    0.000000000000
 O   -0.154713444921    2.037997190510    0.000000000000
 H   -1.057844444921    2.386424190510    0.000000000000
LI    2.772724962935    3.561186071840    0.000000000000
