14

 C   -0.210179970775   -2.164141797763    0.000000000000
 H   -0.202457970775   -3.257316797763    0.000000000000
 C    1.000296029225   -1.444302797763    0.000000000000
 H    1.955315029225   -1.978001797763    0.000000000000
 C   -1.430003970775   -1.464135797763    0.000000000000
 H   -2.378135970775   -2.009947797763    0.000000000000
 C    0.997888029225   -0.039157797763    0.000000000000
 H    1.929242029225    0.533381202237    0.000000000000
 C   -1.443854970775   -0.056654797763    0.000000000000
 H   -2.395853970775    0.486066202237    0.000000000000
 C   -0.227577970775    0.651127202237    0.000000000000
 O   -0.167030970775    2.031588202237    0.000000000000
 H   -1.070161970775    2.380015202237    0.000000000000
LI    2.937827946649    3.647091561224    0.000000000000
