14

 C   -0.216338733701   -2.167346291899    0.000000000000
 H   -0.208616733701   -3.260521291899    0.000000000000
 C    0.994137266299   -1.447507291899    0.000000000000
 H    1.949156266299   -1.981206291899    0.000000000000
 C   -1.436162733701   -1.467340291899    0.000000000000
 H   -2.384294733701   -2.013152291899    0.000000000000
 C    0.991729266299   -0.042362291899    0.000000000000
 H    1.923083266299    0.530176708101    0.000000000000
 C   -1.450013733701   -0.059859291899    0.000000000000
 H   -2.402012733701    0.482861708101    0.000000000000
 C   -0.233736733701    0.647922708101    0.000000000000
 O   -0.173189733701    2.028383708101    0.000000000000
 H   -1.076320733701    2.376810708101    0.000000000000
LI    3.020379438506    3.690044305916    0.000000000000
