14

 C   -0.222497496628   -2.170550786035    0.000000000000
 H   -0.214775496628   -3.263725786035    0.000000000000
 C    0.987978503372   -1.450711786035    0.000000000000
 H    1.942997503372   -1.984410786035    0.000000000000
 C   -1.442321496628   -1.470544786035    0.000000000000
 H   -2.390453496628   -2.016356786035    0.000000000000
 C    0.985570503372   -0.045566786035    0.000000000000
 H    1.916924503372    0.526972213965    0.000000000000
 C   -1.456172496628   -0.063063786035    0.000000000000
 H   -2.408171496628    0.479657213965    0.000000000000
 C   -0.239895496628    0.644718213965    0.000000000000
 O   -0.179348496628    2.025179213965    0.000000000000
 H   -1.082479496628    2.373606213965    0.000000000000
LI    3.102930930363    3.732997050607    0.000000000000
