14

 C   -0.259450074188   -2.189777750854    0.000000000000
 H   -0.251728074188   -3.282952750854    0.000000000000
 C    0.951025925812   -1.469938750854    0.000000000000
 H    1.906044925812   -2.003637750854    0.000000000000
 C   -1.479274074188   -1.489771750854    0.000000000000
 H   -2.427406074188   -2.035583750854    0.000000000000
 C    0.948617925812   -0.064793750854    0.000000000000
 H    1.879971925812    0.507745249146    0.000000000000
 C   -1.493125074188   -0.082290750854    0.000000000000
 H   -2.445124074188    0.460430249146    0.000000000000
 C   -0.276848074188    0.625491249146    0.000000000000
 O   -0.216301074188    2.005952249146    0.000000000000
 H   -1.119432074188    2.354379249146    0.000000000000
LI    3.598239881504    3.990713518758    0.000000000000
