14

 C   -0.265608837115   -2.192982244990    0.000000000000
 H   -0.257886837115   -3.286157244990    0.000000000000
 C    0.944867162885   -1.473143244990    0.000000000000
 H    1.899886162885   -2.006842244990    0.000000000000
 C   -1.485432837115   -1.492976244990    0.000000000000
 H   -2.433564837115   -2.038788244990    0.000000000000
 C    0.942459162885   -0.067998244990    0.000000000000
 H    1.873813162885    0.504540755010    0.000000000000
 C   -1.499283837115   -0.085495244990    0.000000000000
 H   -2.451282837115    0.457225755010    0.000000000000
 C   -0.283006837115    0.622286755010    0.000000000000
 O   -0.222459837115    2.002747755010    0.000000000000
 H   -1.125590837115    2.351174755010    0.000000000000
LI    3.680791373361    4.033666263450    0.000000000000
