14

 C   -0.271767600041   -2.196186739126    0.000000000000
 H   -0.264045600041   -3.289361739126    0.000000000000
 C    0.938708399959   -1.476347739126    0.000000000000
 H    1.893727399959   -2.010046739126    0.000000000000
 C   -1.491591600041   -1.496180739126    0.000000000000
 H   -2.439723600041   -2.041992739126    0.000000000000
 C    0.936300399959   -0.071202739126    0.000000000000
 H    1.867654399959    0.501336260874    0.000000000000
 C   -1.505442600041   -0.088699739126    0.000000000000
 H   -2.457441600041    0.454021260874    0.000000000000
 C   -0.289165600041    0.619082260874    0.000000000000
 O   -0.228618600041    1.999543260874    0.000000000000
 H   -1.131749600041    2.347970260874    0.000000000000
LI    3.763342865217    4.076619008142    0.000000000000
