14

 C   -0.277926362968   -2.199391233263    0.000000000000
 H   -0.270204362968   -3.292566233263    0.000000000000
 C    0.932549637032   -1.479552233263    0.000000000000
 H    1.887568637032   -2.013251233263    0.000000000000
 C   -1.497750362968   -1.499385233263    0.000000000000
 H   -2.445882362968   -2.045197233263    0.000000000000
 C    0.930141637032   -0.074407233263    0.000000000000
 H    1.861495637032    0.498131766737    0.000000000000
 C   -1.511601362968   -0.091904233263    0.000000000000
 H   -2.463600362968    0.450816766737    0.000000000000
 C   -0.295324362968    0.615877766737    0.000000000000
 O   -0.234777362968    1.996338766737    0.000000000000
 H   -1.137908362968    2.344765766737    0.000000000000
LI    3.845894357074    4.119571752833    0.000000000000
