14

 C   -0.290243888821   -2.205800221536    0.000000000000
 H   -0.282521888821   -3.298975221536    0.000000000000
 C    0.920232111179   -1.485961221536    0.000000000000
 H    1.875251111179   -2.019660221536    0.000000000000
 C   -1.510067888821   -1.505794221536    0.000000000000
 H   -2.458199888821   -2.051606221536    0.000000000000
 C    0.917824111179   -0.080816221536    0.000000000000
 H    1.849178111179    0.491722778464    0.000000000000
 C   -1.523918888821   -0.098313221536    0.000000000000
 H   -2.475917888821    0.444407778464    0.000000000000
 C   -0.307641888821    0.609468778464    0.000000000000
 O   -0.247094888821    1.989929778464    0.000000000000
 H   -1.150225888821    2.338356778464    0.000000000000
LI    4.010997340788    4.205477242217    0.000000000000
