14

 C   -0.296402651748   -2.209004715672    0.000000000000
 H   -0.288680651748   -3.302179715672    0.000000000000
 C    0.914073348252   -1.489165715672    0.000000000000
 H    1.869092348252   -2.022864715672    0.000000000000
 C   -1.516226651748   -1.508998715672    0.000000000000
 H   -2.464358651748   -2.054810715672    0.000000000000
 C    0.911665348252   -0.084020715672    0.000000000000
 H    1.843019348252    0.488518284328    0.000000000000
 C   -1.530077651748   -0.101517715672    0.000000000000
 H   -2.482076651748    0.441203284328    0.000000000000
 C   -0.313800651748    0.606264284328    0.000000000000
 O   -0.253253651748    1.986725284328    0.000000000000
 H   -1.156384651748    2.335152284328    0.000000000000
LI    4.093548832645    4.248429986909    0.000000000000
