14

 C   -0.302561414675   -2.212209209808    0.000000000000
 H   -0.294839414675   -3.305384209808    0.000000000000
 C    0.907914585325   -1.492370209808    0.000000000000
 H    1.862933585325   -2.026069209808    0.000000000000
 C   -1.522385414675   -1.512203209808    0.000000000000
 H   -2.470517414675   -2.058015209808    0.000000000000
 C    0.905506585325   -0.087225209808    0.000000000000
 H    1.836860585325    0.485313790192    0.000000000000
 C   -1.536236414675   -0.104722209808    0.000000000000
 H   -2.488235414675    0.437998790192    0.000000000000
 C   -0.319959414675    0.603059790192    0.000000000000
 O   -0.259412414675    1.983520790192    0.000000000000
 H   -1.162543414675    2.331947790192    0.000000000000
LI    4.176100324502    4.291382731601    0.000000000000
