14

 C   -0.314878940528   -2.218618198081    0.000000000000
 H   -0.307156940528   -3.311793198081    0.000000000000
 C    0.895597059472   -1.498779198081    0.000000000000
 H    1.850616059472   -2.032478198081    0.000000000000
 C   -1.534702940528   -1.518612198081    0.000000000000
 H   -2.482834940528   -2.064424198081    0.000000000000
 C    0.893189059472   -0.093634198081    0.000000000000
 H    1.824543059472    0.478904801919    0.000000000000
 C   -1.548553940528   -0.111131198081    0.000000000000
 H   -2.500552940528    0.431589801919    0.000000000000
 C   -0.332276940528    0.596650801919    0.000000000000
 O   -0.271729940528    1.977111801919    0.000000000000
 H   -1.174860940528    2.325538801919    0.000000000000
LI    4.341203308215    4.377288220984    0.000000000000
