14

 C   -0.321037703455   -2.221822692218    0.000000000000
 H   -0.313315703455   -3.314997692218    0.000000000000
 C    0.889438296545   -1.501983692218    0.000000000000
 H    1.844457296545   -2.035682692218    0.000000000000
 C   -1.540861703455   -1.521816692218    0.000000000000
 H   -2.488993703455   -2.067628692218    0.000000000000
 C    0.887030296545   -0.096838692218    0.000000000000
 H    1.818384296545    0.475700307782    0.000000000000
 C   -1.554712703455   -0.114335692218    0.000000000000
 H   -2.506711703455    0.428385307782    0.000000000000
 C   -0.338435703455    0.593446307782    0.000000000000
 O   -0.277888703455    1.973907307782    0.000000000000
 H   -1.181019703455    2.322334307782    0.000000000000
LI    4.423754800072    4.420240965676    0.000000000000
