14

 C   -0.333355229308   -2.228231680490    0.000000000000
 H   -0.325633229308   -3.321406680490    0.000000000000
 C    0.877120770692   -1.508392680490    0.000000000000
 H    1.832139770692   -2.042091680490    0.000000000000
 C   -1.553179229308   -1.528225680490    0.000000000000
 H   -2.501311229308   -2.074037680490    0.000000000000
 C    0.874712770692   -0.103247680490    0.000000000000
 H    1.806066770692    0.469291319510    0.000000000000
 C   -1.567030229308   -0.120744680490    0.000000000000
 H   -2.519029229308    0.421976319510    0.000000000000
 C   -0.350753229308    0.587037319510    0.000000000000
 O   -0.290206229308    1.967498319510    0.000000000000
 H   -1.193337229308    2.315925319510    0.000000000000
LI    4.588857783786    4.506146455059    0.000000000000
