14

 C   -0.351831518088   -2.237845162900    0.000000000000
 H   -0.344109518088   -3.331020162900    0.000000000000
 C    0.858644481912   -1.518006162900    0.000000000000
 H    1.813663481912   -2.051705162900    0.000000000000
 C   -1.571655518088   -1.537839162900    0.000000000000
 H   -2.519787518088   -2.083651162900    0.000000000000
 C    0.856236481912   -0.112861162900    0.000000000000
 H    1.787590481912    0.459677837100    0.000000000000
 C   -1.585506518088   -0.130358162900    0.000000000000
 H   -2.537505518088    0.412362837100    0.000000000000
 C   -0.369229518088    0.577423837100    0.000000000000
 O   -0.308682518088    1.957884837100    0.000000000000
 H   -1.211813518088    2.306311837100    0.000000000000
LI    4.836512259357    4.635004689135    0.000000000000
