14

 C   -0.413419147355   -2.269890104264    0.000000000000
 H   -0.405697147355   -3.363065104264    0.000000000000
 C    0.797056852645   -1.550051104264    0.000000000000
 H    1.752075852645   -2.083750104264    0.000000000000
 C   -1.633243147355   -1.569884104264    0.000000000000
 H   -2.581375147355   -2.115696104264    0.000000000000
 C    0.794648852645   -0.144906104264    0.000000000000
 H    1.726002852645    0.427632895736    0.000000000000
 C   -1.647094147355   -0.162403104264    0.000000000000
 H   -2.599093147355    0.380317895736    0.000000000000
 C   -0.430817147355    0.545378895736    0.000000000000
 O   -0.370270147355    1.925839895736    0.000000000000
 H   -1.273401147355    2.274266895736    0.000000000000
LI    5.662027177925    5.064532136053    0.000000000000
