14

 C   -0.425736673208   -2.276299092536    0.000000000000
 H   -0.418014673208   -3.369474092536    0.000000000000
 C    0.784739326792   -1.556460092536    0.000000000000
 H    1.739758326792   -2.090159092536    0.000000000000
 C   -1.645560673208   -1.576293092536    0.000000000000
 H   -2.593692673208   -2.122105092536    0.000000000000
 C    0.782331326792   -0.151315092536    0.000000000000
 H    1.713685326792    0.421223907464    0.000000000000
 C   -1.659411673208   -0.168812092536    0.000000000000
 H   -2.611410673208    0.373908907464    0.000000000000
 C   -0.443134673208    0.538969907464    0.000000000000
 O   -0.382587673208    1.919430907464    0.000000000000
 H   -1.285718673208    2.267857907464    0.000000000000
LI    5.827130161639    5.150437625436    0.000000000000
