14

 C   -0.438054199061   -2.282708080809    0.000000000000
 H   -0.430332199061   -3.375883080809    0.000000000000
 C    0.772421800939   -1.562869080809    0.000000000000
 H    1.727440800939   -2.096568080809    0.000000000000
 C   -1.657878199061   -1.582702080809    0.000000000000
 H   -2.606010199061   -2.128514080809    0.000000000000
 C    0.770013800939   -0.157724080809    0.000000000000
 H    1.701367800939    0.414814919191    0.000000000000
 C   -1.671729199061   -0.175221080809    0.000000000000
 H   -2.623728199061    0.367499919191    0.000000000000
 C   -0.455452199061    0.532560919191    0.000000000000
 O   -0.394905199061    1.913021919191    0.000000000000
 H   -1.298036199061    2.261448919191    0.000000000000
LI    5.992233145353    5.236343114820    0.000000000000
