14

 C   -0.456530487841   -2.292321563218    0.000000000000
 H   -0.448808487841   -3.385496563218    0.000000000000
 C    0.753945512159   -1.572482563218    0.000000000000
 H    1.708964512159   -2.106181563218    0.000000000000
 C   -1.676354487841   -1.592315563218    0.000000000000
 H   -2.624486487841   -2.138127563218    0.000000000000
 C    0.751537512159   -0.167337563218    0.000000000000
 H    1.682891512159    0.405201436782    0.000000000000
 C   -1.690205487841   -0.184834563218    0.000000000000
 H   -2.642204487841    0.357886436782    0.000000000000
 C   -0.473928487841    0.522947436782    0.000000000000
 O   -0.413381487841    1.903408436782    0.000000000000
 H   -1.316512487841    2.251835436782    0.000000000000
LI    6.239887620923    5.365201348895    0.000000000000
