14

 C   -0.462689250768   -2.295526057355    0.000000000000
 H   -0.454967250768   -3.388701057355    0.000000000000
 C    0.747786749232   -1.575687057355    0.000000000000
 H    1.702805749232   -2.109386057355    0.000000000000
 C   -1.682513250768   -1.595520057355    0.000000000000
 H   -2.630645250768   -2.141332057355    0.000000000000
 C    0.745378749232   -0.170542057355    0.000000000000
 H    1.676732749232    0.401996942645    0.000000000000
 C   -1.696364250768   -0.188039057355    0.000000000000
 H   -2.648363250768    0.354681942645    0.000000000000
 C   -0.480087250768    0.519742942645    0.000000000000
 O   -0.419540250768    1.900203942645    0.000000000000
 H   -1.322671250768    2.248630942645    0.000000000000
LI    6.322439112780    5.408154093587    0.000000000000
