14

 C   -0.493483065401   -2.311548528037    0.000000000000
 H   -0.485761065401   -3.404723528037    0.000000000000
 C    0.716992934599   -1.591709528037    0.000000000000
 H    1.672011934599   -2.125408528037    0.000000000000
 C   -1.713307065401   -1.611542528037    0.000000000000
 H   -2.661439065401   -2.157354528037    0.000000000000
 C    0.714584934599   -0.186564528037    0.000000000000
 H    1.645938934599    0.385974471963    0.000000000000
 C   -1.727158065401   -0.204061528037    0.000000000000
 H   -2.679157065401    0.338659471963    0.000000000000
 C   -0.510881065401    0.503720471963    0.000000000000
 O   -0.450334065401    1.884181471963    0.000000000000
 H   -1.353465065401    2.232608471963    0.000000000000
LI    6.735196572065    5.622917817046    0.000000000000
