14

 C   -0.511959354181   -2.321162010446    0.000000000000
 H   -0.504237354181   -3.414337010446    0.000000000000
 C    0.698516645819   -1.601323010446    0.000000000000
 H    1.653535645819   -2.135022010446    0.000000000000
 C   -1.731783354181   -1.621156010446    0.000000000000
 H   -2.679915354181   -2.166968010446    0.000000000000
 C    0.696108645819   -0.196178010446    0.000000000000
 H    1.627462645819    0.376360989554    0.000000000000
 C   -1.745634354181   -0.213675010446    0.000000000000
 H   -2.697633354181    0.329045989554    0.000000000000
 C   -0.529357354181    0.494106989554    0.000000000000
 O   -0.468810354181    1.874567989554    0.000000000000
 H   -1.371941354181    2.222994989554    0.000000000000
LI    6.982851047635    5.751776051121    0.000000000000
