14

 C   -0.536594405888   -2.333979986992    0.000000000000
 H   -0.528872405888   -3.427154986992    0.000000000000
 C    0.673881594112   -1.614140986992    0.000000000000
 H    1.628900594112   -2.147839986992    0.000000000000
 C   -1.756418405888   -1.633973986992    0.000000000000
 H   -2.704550405888   -2.179785986992    0.000000000000
 C    0.671473594112   -0.208995986992    0.000000000000
 H    1.602827594112    0.363543013008    0.000000000000
 C   -1.770269405888   -0.226492986992    0.000000000000
 H   -2.722268405888    0.316228013008    0.000000000000
 C   -0.553992405888    0.481289013008    0.000000000000
 O   -0.493445405888    1.861750013008    0.000000000000
 H   -1.396576405888    2.210177013008    0.000000000000
LI    7.313057015063    5.923587029888    0.000000000000
