14

 C   -0.548911931741   -2.340388975264    0.000000000000
 H   -0.541189931741   -3.433563975264    0.000000000000
 C    0.661564068259   -1.620549975264    0.000000000000
 H    1.616583068259   -2.154248975264    0.000000000000
 C   -1.768735931741   -1.640382975264    0.000000000000
 H   -2.716867931741   -2.186194975264    0.000000000000
 C    0.659156068259   -0.215404975264    0.000000000000
 H    1.590510068259    0.357134024736    0.000000000000
 C   -1.782586931741   -0.232901975264    0.000000000000
 H   -2.734585931741    0.309819024736    0.000000000000
 C   -0.566309931741    0.474880024736    0.000000000000
 O   -0.505762931741    1.855341024736    0.000000000000
 H   -1.408893931741    2.203768024736    0.000000000000
LI    7.478159998776    6.009492519272    0.000000000000
