14

 C   -0.573546983448   -2.353206951810    0.000000000000
 H   -0.565824983448   -3.446381951810    0.000000000000
 C    0.636929016552   -1.633367951810    0.000000000000
 H    1.591948016552   -2.167066951810    0.000000000000
 C   -1.793370983448   -1.653200951810    0.000000000000
 H   -2.741502983448   -2.199012951810    0.000000000000
 C    0.634521016552   -0.228222951810    0.000000000000
 H    1.565875016552    0.344316048190    0.000000000000
 C   -1.807221983448   -0.245719951810    0.000000000000
 H   -2.759220983448    0.297001048190    0.000000000000
 C   -0.590944983448    0.462062048190    0.000000000000
 O   -0.530397983448    1.842523048190    0.000000000000
 H   -1.433528983448    2.190950048190    0.000000000000
LI    7.808365966204    6.181303498039    0.000000000000
