14

 C   -0.579705746374   -2.356411445946    0.000000000000
 H   -0.571983746374   -3.449586445946    0.000000000000
 C    0.630770253626   -1.636572445946    0.000000000000
 H    1.585789253626   -2.170271445946    0.000000000000
 C   -1.799529746374   -1.656405445946    0.000000000000
 H   -2.747661746374   -2.202217445946    0.000000000000
 C    0.628362253626   -0.231427445946    0.000000000000
 H    1.559716253626    0.341111554054    0.000000000000
 C   -1.813380746374   -0.248924445946    0.000000000000
 H   -2.765379746374    0.293796554054    0.000000000000
 C   -0.597103746374    0.458857554054    0.000000000000
 O   -0.536556746374    1.839318554054    0.000000000000
 H   -1.439687746374    2.187745554054    0.000000000000
LI    7.890917458061    6.224256242731    0.000000000000
