14

 C   -0.585864509301   -2.359615940083    0.000000000000
 H   -0.578142509301   -3.452790940083    0.000000000000
 C    0.624611490699   -1.639776940083    0.000000000000
 H    1.579630490699   -2.173475940083    0.000000000000
 C   -1.805688509301   -1.659609940083    0.000000000000
 H   -2.753820509301   -2.205421940083    0.000000000000
 C    0.622203490699   -0.234631940083    0.000000000000
 H    1.553557490699    0.337907059917    0.000000000000
 C   -1.819539509301   -0.252128940083    0.000000000000
 H   -2.771538509301    0.290592059917    0.000000000000
 C   -0.603262509301    0.455653059917    0.000000000000
 O   -0.542715509301    1.836114059917    0.000000000000
 H   -1.445846509301    2.184541059917    0.000000000000
LI    7.973468949918    6.267208987422    0.000000000000
