14

 C   -0.604340798081   -2.369229422492    0.000000000000
 H   -0.596618798081   -3.462404422492    0.000000000000
 C    0.606135201919   -1.649390422492    0.000000000000
 H    1.561154201919   -2.183089422492    0.000000000000
 C   -1.824164798081   -1.669223422492    0.000000000000
 H   -2.772296798081   -2.215035422492    0.000000000000
 C    0.603727201919   -0.244245422492    0.000000000000
 H    1.535081201919    0.328293577508    0.000000000000
 C   -1.838015798081   -0.261742422492    0.000000000000
 H   -2.790014798081    0.280978577508    0.000000000000
 C   -0.621738798081    0.446039577508    0.000000000000
 O   -0.561191798081    1.826500577508    0.000000000000
 H   -1.464322798081    2.174927577508    0.000000000000
LI    8.221123425488    6.396067221498    0.000000000000
