9

 C   -2.126988011205   -1.374748700032    0.000000000000
 H   -3.105915011205   -0.882960700032    0.000000000000
 H   -2.019842011205   -2.014557700032    0.888272000000
 H   -2.019842011205   -2.014557700032   -0.888272000000
 C   -1.042361011205   -0.329164700032    0.000000000000
 O   -1.203465011205    0.880386299968    0.000000000000
 O    0.199924988795   -0.906172700032    0.000000000000
 H    0.834460988795   -0.167609700032    0.000000000000
 K    1.551296157340    0.666744745714    0.000000000000
