9

 C   -2.152639833036   -1.404605928758    0.000000000000
 H   -3.131566833036   -0.912817928758    0.000000000000
 H   -2.045493833036   -2.044414928758    0.888272000000
 H   -2.045493833036   -2.044414928758   -0.888272000000
 C   -1.068012833036   -0.359021928758    0.000000000000
 O   -1.229116833036    0.850529071242    0.000000000000
 O    0.174273166964   -0.936029928758    0.000000000000
 H    0.808809166964   -0.197466928758    0.000000000000
 K    1.590811169014    0.712737921147    0.000000000000
