9

 C   -2.306550764021   -1.583749301114    0.000000000000
 H   -3.285477764021   -1.091961301114    0.000000000000
 H   -2.199404764021   -2.223558301114    0.888272000000
 H   -2.199404764021   -2.223558301114   -0.888272000000
 C   -1.221923764021   -0.538165301114    0.000000000000
 O   -1.383027764021    0.671385698886    0.000000000000
 O    0.020362235979   -1.115173301114    0.000000000000
 H    0.654898235979   -0.376610301114    0.000000000000
 K    1.827901239053    0.988696973744    0.000000000000
