9

 C   -2.357854407683   -1.643463758566    0.000000000000
 H   -3.336781407683   -1.151675758566    0.000000000000
 H   -2.250708407683   -2.283272758566    0.888272000000
 H   -2.250708407683   -2.283272758566   -0.888272000000
 C   -1.273227407683   -0.597879758566    0.000000000000
 O   -1.434331407683    0.611671241434    0.000000000000
 O   -0.030941407683   -1.174887758566    0.000000000000
 H    0.603594592317   -0.436324758566    0.000000000000
 K    1.906931262399    1.080683324609    0.000000000000
