9

 C   -2.409158051345   -1.703178216019    0.000000000000
 H   -3.388085051345   -1.211390216019    0.000000000000
 H   -2.302012051345   -2.342987216019    0.888272000000
 H   -2.302012051345   -2.342987216019   -0.888272000000
 C   -1.324531051345   -0.657594216019    0.000000000000
 O   -1.485635051345    0.551956783981    0.000000000000
 O   -0.082245051345   -1.234602216019    0.000000000000
 H    0.552290948655   -0.496039216019    0.000000000000
 K    1.985961285745    1.172669675474    0.000000000000
