9

 C   -2.511765338668   -1.822607130923    0.000000000000
 H   -3.490692338668   -1.330819130923    0.000000000000
 H   -2.404619338668   -2.462416130923    0.888272000000
 H   -2.404619338668   -2.462416130923   -0.888272000000
 C   -1.427138338668   -0.777023130923    0.000000000000
 O   -1.588242338668    0.432527869077    0.000000000000
 O   -0.184852338668   -1.354031130923    0.000000000000
 H    0.449683661332   -0.615468130923    0.000000000000
 K    2.144021332438    1.356642377205    0.000000000000
