9

 C   -2.537417160499   -1.852464359649    0.000000000000
 H   -3.516344160499   -1.360676359649    0.000000000000
 H   -2.430271160499   -2.492273359649    0.888272000000
 H   -2.430271160499   -2.492273359649   -0.888272000000
 C   -1.452790160499   -0.806880359649    0.000000000000
 O   -1.613894160499    0.402670640351    0.000000000000
 O   -0.210504160499   -1.383888359649    0.000000000000
 H    0.424031839501   -0.645325359649    0.000000000000
 K    2.183536344111    1.402635552638    0.000000000000
