9

 C   -2.793935378809   -2.151036646909    0.000000000000
 H   -3.772862378809   -1.659248646909    0.000000000000
 H   -2.686789378809   -2.790845646909    0.888272000000
 H   -2.686789378809   -2.790845646909   -0.888272000000
 C   -1.709308378809   -1.105452646909    0.000000000000
 O   -1.870412378809    0.104098353091    0.000000000000
 O   -0.467022378809   -1.682460646909    0.000000000000
 H    0.167513621191   -0.943897646909    0.000000000000
 K    2.578686460843    1.862567306965    0.000000000000
