9

 C   -3.204364528103   -2.628752306526    0.000000000000
 H   -4.183291528103   -2.136964306526    0.000000000000
 H   -3.097218528103   -3.268561306526    0.888272000000
 H   -3.097218528103   -3.268561306526   -0.888272000000
 C   -2.119737528103   -1.583168306526    0.000000000000
 O   -2.280841528103   -0.373617306526    0.000000000000
 O   -0.877451528103   -2.160176306526    0.000000000000
 H   -0.242915528103   -1.421613306526    0.000000000000
 K    3.210926647614    2.598458113889    0.000000000000
