9

 C   -3.460882746413   -2.927324593787    0.000000000000
 H   -4.439809746413   -2.435536593787    0.000000000000
 H   -3.353736746413   -3.567133593787    0.888272000000
 H   -3.353736746413   -3.567133593787   -0.888272000000
 C   -2.376255746413   -1.881740593787    0.000000000000
 O   -2.537359746413   -0.672189593787    0.000000000000
 O   -1.133969746413   -2.458748593787    0.000000000000
 H   -0.499433746413   -1.720185593787    0.000000000000
 K    3.606076764346    3.058389868216    0.000000000000
