9

 C   -3.743052786553   -3.255754109773    0.000000000000
 H   -4.721979786553   -2.763966109773    0.000000000000
 H   -3.635906786553   -3.895563109773    0.888272000000
 H   -3.635906786553   -3.895563109773   -0.888272000000
 C   -2.658425786553   -2.210170109773    0.000000000000
 O   -2.819529786553   -1.000619109773    0.000000000000
 O   -1.416139786553   -2.787178109773    0.000000000000
 H   -0.781603786553   -2.048615109773    0.000000000000
 K    4.040741892751    3.564314797976    0.000000000000
