9

 C   -3.768704608384   -3.285611338499    0.000000000000
 H   -4.747631608384   -2.793823338499    0.000000000000
 H   -3.661558608384   -3.925420338499    0.888272000000
 H   -3.661558608384   -3.925420338499   -0.888272000000
 C   -2.684077608384   -2.240027338499    0.000000000000
 O   -2.845181608384   -1.030476338499    0.000000000000
 O   -1.441791608384   -2.817035338499    0.000000000000
 H   -0.807255608384   -2.078472338499    0.000000000000
 K    4.080256904424    3.610307973409    0.000000000000
