9

 C   -3.794356430215   -3.315468567225    0.000000000000
 H   -4.773283430215   -2.823680567225    0.000000000000
 H   -3.687210430215   -3.955277567225    0.888272000000
 H   -3.687210430215   -3.955277567225   -0.888272000000
 C   -2.709729430215   -2.269884567225    0.000000000000
 O   -2.870833430215   -1.060333567225    0.000000000000
 O   -1.467443430215   -2.846892567225    0.000000000000
 H   -0.832907430215   -2.108329567225    0.000000000000
 K    4.119771916097    3.656301148841    0.000000000000
