9

 C   -3.845660073877   -3.375183024677    0.000000000000
 H   -4.824587073877   -2.883395024677    0.000000000000
 H   -3.738514073877   -4.014992024677    0.888272000000
 H   -3.738514073877   -4.014992024677   -0.888272000000
 C   -2.761033073877   -2.329599024677    0.000000000000
 O   -2.922137073877   -1.120048024677    0.000000000000
 O   -1.518747073877   -2.906607024677    0.000000000000
 H   -0.884211073877   -2.168044024677    0.000000000000
 K    4.198801939443    3.748287499707    0.000000000000
