9

 C   -3.948267361200   -3.494611939582    0.000000000000
 H   -4.927194361200   -3.002823939582    0.000000000000
 H   -3.841121361200   -4.134420939582    0.888272000000
 H   -3.841121361200   -4.134420939582   -0.888272000000
 C   -2.863640361200   -2.449027939582    0.000000000000
 O   -3.024744361200   -1.239476939582    0.000000000000
 O   -1.621354361200   -3.026035939582    0.000000000000
 H   -0.986818361200   -2.287472939582    0.000000000000
 K    4.356861986136    3.932260201438    0.000000000000
