9

 C   -3.973919183031   -3.524469168308    0.000000000000
 H   -4.952846183031   -3.032681168308    0.000000000000
 H   -3.866773183031   -4.164278168308    0.888272000000
 H   -3.866773183031   -4.164278168308   -0.888272000000
 C   -2.889292183031   -2.478885168308    0.000000000000
 O   -3.050396183031   -1.269334168308    0.000000000000
 O   -1.647006183031   -3.055893168308    0.000000000000
 H   -1.012470183031   -2.317330168308    0.000000000000
 K    4.396376997809    3.978253376870    0.000000000000
