9

 C   -4.050874648524   -3.614040854486    0.000000000000
 H   -5.029801648524   -3.122252854486    0.000000000000
 H   -3.943728648524   -4.253849854486    0.888272000000
 H   -3.943728648524   -4.253849854486   -0.888272000000
 C   -2.966247648524   -2.568456854486    0.000000000000
 O   -3.127351648524   -1.358905854486    0.000000000000
 O   -1.723961648524   -3.145464854486    0.000000000000
 H   -1.089425648524   -2.406901854486    0.000000000000
 K    4.514922032829    4.116232903168    0.000000000000
