9

 C   -4.076526470355   -3.643898083212    0.000000000000
 H   -5.055453470355   -3.152110083212    0.000000000000
 H   -3.969380470355   -4.283707083212    0.888272000000
 H   -3.969380470355   -4.283707083212   -0.888272000000
 C   -2.991899470355   -2.598314083212    0.000000000000
 O   -3.153003470355   -1.388763083212    0.000000000000
 O   -1.749613470355   -3.175322083212    0.000000000000
 H   -1.115077470355   -2.436759083212    0.000000000000
 K    4.554437044502    4.162226078601    0.000000000000
