9

 C   -4.153481935848   -3.733469769390    0.000000000000
 H   -5.132408935848   -3.241681769390    0.000000000000
 H   -4.046335935848   -4.373278769390    0.888272000000
 H   -4.046335935848   -4.373278769390   -0.888272000000
 C   -3.068854935848   -2.687885769390    0.000000000000
 O   -3.229958935848   -1.478334769390    0.000000000000
 O   -1.826568935848   -3.264893769390    0.000000000000
 H   -1.192032935848   -2.526330769390    0.000000000000
 K    4.672982079521    4.300205604899    0.000000000000
