9

 C   -4.230437401340   -3.823041455568    0.000000000000
 H   -5.209364401340   -3.331253455568    0.000000000000
 H   -4.123291401340   -4.462850455568    0.888272000000
 H   -4.123291401340   -4.462850455568   -0.888272000000
 C   -3.145810401340   -2.777457455568    0.000000000000
 O   -3.306914401340   -1.567906455568    0.000000000000
 O   -1.903524401340   -3.354465455568    0.000000000000
 H   -1.268988401340   -2.615902455568    0.000000000000
 K    4.791527114541    4.438185131198    0.000000000000
