9

 C   -4.281741045002   -3.882755913020    0.000000000000
 H   -5.260668045002   -3.390967913020    0.000000000000
 H   -4.174595045002   -4.522564913020    0.888272000000
 H   -4.174595045002   -4.522564913020   -0.888272000000
 C   -3.197114045002   -2.837171913020    0.000000000000
 O   -3.358218045002   -1.627620913020    0.000000000000
 O   -1.954828045002   -3.414179913020    0.000000000000
 H   -1.320292045002   -2.675616913020    0.000000000000
 K    4.870557137887    4.530171482063    0.000000000000
