9

 C   -4.307392866833   -3.912613141746    0.000000000000
 H   -5.286319866833   -3.420825141746    0.000000000000
 H   -4.200246866833   -4.552422141746    0.888272000000
 H   -4.200246866833   -4.552422141746   -0.888272000000
 C   -3.222765866833   -2.867029141746    0.000000000000
 O   -3.383869866833   -1.657478141746    0.000000000000
 O   -1.980479866833   -3.444037141746    0.000000000000
 H   -1.345943866833   -2.705474141746    0.000000000000
 K    4.910072149561    4.576164657496    0.000000000000
