9

 C   -4.333044688664   -3.942470370472    0.000000000000
 H   -5.311971688664   -3.450682370472    0.000000000000
 H   -4.225898688664   -4.582279370472    0.888272000000
 H   -4.225898688664   -4.582279370472   -0.888272000000
 C   -3.248417688664   -2.896886370472    0.000000000000
 O   -3.409521688664   -1.687335370472    0.000000000000
 O   -2.006131688664   -3.473894370472    0.000000000000
 H   -1.371595688664   -2.735331370472    0.000000000000
 K    4.949587161234    4.622157832928    0.000000000000
