9

 C   -4.384348332326   -4.002184827924    0.000000000000
 H   -5.363275332326   -3.510396827924    0.000000000000
 H   -4.277202332326   -4.641993827924    0.888272000000
 H   -4.277202332326   -4.641993827924   -0.888272000000
 C   -3.299721332326   -2.956600827924    0.000000000000
 O   -3.460825332326   -1.747049827924    0.000000000000
 O   -2.057435332326   -3.533608827924    0.000000000000
 H   -1.422899332326   -2.795045827924    0.000000000000
 K    5.028617184580    4.714144183794    0.000000000000
