12

 C   -0.903029487778    1.903019809542   -0.388818584267
 C    0.209312512222    0.883541809542   -0.388818584267
 O   -0.295018487778   -0.382911190458   -0.388818584267
 C    0.719447512222   -1.416650190458   -0.388818584267
 O    1.406952512222    1.128034809542   -0.388818584267
 H   -0.470459487778    2.910029809542   -0.388818584267
 H   -1.535366487778    1.760447809542    0.499796415733
 H   -1.535366487778    1.760447809542   -1.277433584267
 H    0.165350512222   -2.361774190458   -0.388818584267
 H    1.349242512222   -1.330351190458    0.507371415733
 H    1.349242512222   -1.330351190458   -1.285008584267
 K   -0.446861978164   -0.764213636532    0.738812560676
