12

 C   -0.889940196296    1.935889041188   -0.486023230334
 C    0.222401803704    0.916411041188   -0.486023230334
 O   -0.281929196296   -0.350041958812   -0.486023230334
 C    0.732536803704   -1.383780958812   -0.486023230334
 O    1.420041803704    1.160904041188   -0.486023230334
 H   -0.457370196296    2.942899041188   -0.486023230334
 H   -1.522277196296    1.793317041188    0.402591769666
 H   -1.522277196296    1.793317041188   -1.374638230334
 H    0.178439803704   -2.328904958812   -0.486023230334
 H    1.362331803704   -1.297481958812    0.410166769666
 H    1.362331803704   -1.297481958812   -1.382213230334
 K   -0.471733559279   -0.826670016403    0.923515700845
