12

 C   -0.872487807653    1.979714683384   -0.615629425090
 C    0.239854192347    0.960236683384   -0.615629425090
 O   -0.264476807653   -0.306216316616   -0.615629425090
 C    0.749989192347   -1.339955316616   -0.615629425090
 O    1.437494192347    1.204729683384   -0.615629425090
 H   -0.439917807653    2.986724683384   -0.615629425090
 H   -1.504824807653    1.837142683384    0.272985574910
 H   -1.504824807653    1.837142683384   -1.504244425090
 H    0.195892192347   -2.285079316616   -0.615629425090
 H    1.379784192347   -1.253656316616    0.280560574910
 H    1.379784192347   -1.253656316616   -1.511819425090
 K   -0.504895667432   -0.909945189566    1.169786554404
