12

 C   -0.828856836045    2.089278788872   -0.939644911979
 C    0.283485163955    1.069800788872   -0.939644911979
 O   -0.220845836045   -0.196652211128   -0.939644911979
 C    0.793620163955   -1.230391211128   -0.939644911979
 O    1.481125163955    1.314293788872   -0.939644911979
 H   -0.396286836045    3.096288788872   -0.939644911979
 H   -1.461193836045    1.946706788872   -0.051029911979
 H   -1.461193836045    1.946706788872   -1.828259911979
 H    0.239523163955   -2.175515211128   -0.939644911979
 H    1.423415163955   -1.144092211128   -0.043454911979
 H    1.423415163955   -1.144092211128   -1.835834911979
 K   -0.587800937813   -1.118133122472    1.785463688300
