12

 C   -0.811404447402    2.133104431067   -1.069251106734
 C    0.300937552598    1.113626431067   -1.069251106734
 O   -0.203393447402   -0.152826568933   -1.069251106734
 C    0.811072552598   -1.186565568933   -1.069251106734
 O    1.498577552598    1.358119431067   -1.069251106734
 H   -0.378834447402    3.140114431067   -1.069251106734
 H   -1.443741447402    1.990532431067   -0.180636106734
 H   -1.443741447402    1.990532431067   -1.957866106734
 H    0.256975552598   -2.131689568933   -1.069251106734
 H    1.440867552598   -1.100266568933   -0.173061106734
 H    1.440867552598   -1.100266568933   -1.965441106734
 K   -0.620963045966   -1.201408295634    2.031734541859
