12

 C   -0.807041350242    2.144060841616   -1.101652655423
 C    0.305300649758    1.124582841616   -1.101652655423
 O   -0.199030350242   -0.141870158384   -1.101652655423
 C    0.815435649758   -1.175609158384   -1.101652655423
 O    1.502940649758    1.369075841616   -1.101652655423
 H   -0.374471350242    3.151070841616   -1.101652655423
 H   -1.439378350242    2.001488841616   -0.213037655423
 H   -1.439378350242    2.001488841616   -1.990267655423
 H    0.261338649758   -2.120733158384   -1.101652655423
 H    1.445230649758   -1.089310158384   -0.205462655423
 H    1.445230649758   -1.089310158384   -1.997842655423
 K   -0.629253573004   -1.222227088925    2.093302255249
