12

 C   -0.798315155920    2.165973662714   -1.166455752801
 C    0.314026844080    1.146495662714   -1.166455752801
 O   -0.190304155920   -0.119957337286   -1.166455752801
 C    0.824161844080   -1.153696337286   -1.166455752801
 O    1.511666844080    1.390988662714   -1.166455752801
 H   -0.365745155920    3.172983662714   -1.166455752801
 H   -1.430652155920    2.023401662714   -0.277840752801
 H   -1.430652155920    2.023401662714   -2.055070752801
 H    0.270064844080   -2.098820337286   -1.166455752801
 H    1.453956844080   -1.067397337286   -0.270265752801
 H    1.453956844080   -1.067397337286   -2.062645752801
 K   -0.645834627080   -1.263864675506    2.216437682028
