12

 C   -0.789588961599    2.187886483812   -1.231258850179
 C    0.322753038401    1.168408483812   -1.231258850179
 O   -0.181577961599   -0.098044516188   -1.231258850179
 C    0.832888038401   -1.131783516188   -1.231258850179
 O    1.520393038401    1.412901483812   -1.231258850179
 H   -0.357018961599    3.194896483812   -1.231258850179
 H   -1.421925961599    2.045314483812   -0.342643850179
 H   -1.421925961599    2.045314483812   -2.119873850179
 H    0.278791038401   -2.076907516188   -1.231258850179
 H    1.462683038401   -1.045484516188   -0.335068850179
 H    1.462683038401   -1.045484516188   -2.127448850179
 K   -0.662415681156   -1.305502262087    2.339573108807
