12

 C   -0.780862767277    2.209799304909   -1.296061947557
 C    0.331479232723    1.190321304909   -1.296061947557
 O   -0.172851767277   -0.076131695091   -1.296061947557
 C    0.841614232723   -1.109870695091   -1.296061947557
 O    1.529119232723    1.434814304909   -1.296061947557
 H   -0.348292767277    3.216809304909   -1.296061947557
 H   -1.413199767277    2.067227304909   -0.407446947557
 H   -1.413199767277    2.067227304909   -2.184676947557
 H    0.287517232723   -2.054994695091   -1.296061947557
 H    1.471409232723   -1.023571695091   -0.399871947557
 H    1.471409232723   -1.023571695091   -2.192251947557
 K   -0.678996735233   -1.347139848669    2.462708535587
