12

 C   -0.772136572956    2.231712126007   -1.360865044935
 C    0.340205427044    1.212234126007   -1.360865044935
 O   -0.164125572956   -0.054218873993   -1.360865044935
 C    0.850340427044   -1.087957873993   -1.360865044935
 O    1.537845427044    1.456727126007   -1.360865044935
 H   -0.339566572956    3.238722126007   -1.360865044935
 H   -1.404473572956    2.089140126007   -0.472250044935
 H   -1.404473572956    2.089140126007   -2.249480044935
 H    0.296243427044   -2.033081873993   -1.360865044935
 H    1.480135427044   -1.001658873993   -0.464675044935
 H    1.480135427044   -1.001658873993   -2.257055044935
 K   -0.695577789309   -1.388777435250    2.585843962366
