12

 C   -0.767773475795    2.242668536556   -1.393266593624
 C    0.344568524205    1.223190536556   -1.393266593624
 O   -0.159762475795   -0.043262463444   -1.393266593624
 C    0.854703524205   -1.077001463444   -1.393266593624
 O    1.542208524205    1.467683536556   -1.393266593624
 H   -0.335203475795    3.249678536556   -1.393266593624
 H   -1.400110475795    2.100096536556   -0.504651593624
 H   -1.400110475795    2.100096536556   -2.281881593624
 H    0.300606524205   -2.022125463444   -1.393266593624
 H    1.484498524205   -0.990702463444   -0.497076593624
 H    1.484498524205   -0.990702463444   -2.289456593624
 K   -0.703868316347   -1.409596228541    2.647411675756
