12

 C   -0.754684184313    2.275537768202   -1.490471239690
 C    0.357657815687    1.256059768202   -1.490471239690
 O   -0.146673184313   -0.010393231798   -1.490471239690
 C    0.867792815687   -1.044132231798   -1.490471239690
 O    1.555297815687    1.500552768202   -1.490471239690
 H   -0.322114184313    3.282547768202   -1.490471239690
 H   -1.387021184313    2.132965768202   -0.601856239690
 H   -1.387021184313    2.132965768202   -2.379086239690
 H    0.313695815687   -1.989256231798   -1.490471239690
 H    1.497587815687   -0.957833231798   -0.594281239690
 H    1.497587815687   -0.957833231798   -2.386661239690
 K   -0.728739897462   -1.472052608412    2.832114815925
