12

 C   -0.732868698509    2.330319820946   -1.652478983135
 C    0.379473301491    1.310841820946   -1.652478983135
 O   -0.124857698509    0.044388820946   -1.652478983135
 C    0.889608301491   -0.989350179054   -1.652478983135
 O    1.577113301491    1.555334820946   -1.652478983135
 H   -0.300298698509    3.337329820946   -1.652478983135
 H   -1.365205698509    2.187747820946   -0.763863983135
 H   -1.365205698509    2.187747820946   -2.541093983135
 H    0.335511301491   -1.934474179054   -1.652478983135
 H    1.519403301491   -0.903051179054   -0.756288983135
 H    1.519403301491   -0.903051179054   -2.548668983135
 K   -0.770192532652   -1.576146574865    3.139953382873
