12

 C   -0.728505601348    2.341276231495   -1.684880531824
 C    0.383836398652    1.321798231495   -1.684880531824
 O   -0.120494601348    0.055345231495   -1.684880531824
 C    0.893971398652   -0.978393768505   -1.684880531824
 O    1.581476398652    1.566291231495   -1.684880531824
 H   -0.295935601348    3.348286231495   -1.684880531824
 H   -1.360842601348    2.198704231495   -0.796265531824
 H   -1.360842601348    2.198704231495   -2.573495531824
 H    0.339874398652   -1.923517768505   -1.684880531824
 H    1.523766398652   -0.892094768505   -0.788690531824
 H    1.523766398652   -0.892094768505   -2.581070531824
 K   -0.778483059690   -1.596965368156    3.201521096263
