12

 C   -0.719779407027    2.363189052593   -1.749683629202
 C    0.392562592973    1.343711052593   -1.749683629202
 O   -0.111768407027    0.077258052593   -1.749683629202
 C    0.902697592973   -0.956480947407   -1.749683629202
 O    1.590202592973    1.588204052593   -1.749683629202
 H   -0.287209407027    3.370199052593   -1.749683629202
 H   -1.352116407027    2.220617052593   -0.861068629202
 H   -1.352116407027    2.220617052593   -2.638298629202
 H    0.348600592973   -1.901604947407   -1.749683629202
 H    1.532492592973   -0.870181947407   -0.853493629202
 H    1.532492592973   -0.870181947407   -2.645873629202
 K   -0.795064113767   -1.638602954737    3.324656523042
