12

 C   -0.706690115545    2.396058284239   -1.846888275269
 C    0.405651884455    1.376580284239   -1.846888275269
 O   -0.098679115545    0.110127284239   -1.846888275269
 C    0.915786884455   -0.923611715761   -1.846888275269
 O    1.603291884455    1.621073284239   -1.846888275269
 H   -0.274120115545    3.403068284239   -1.846888275269
 H   -1.339027115545    2.253486284239   -0.958273275269
 H   -1.339027115545    2.253486284239   -2.735503275269
 H    0.361689884455   -1.868735715761   -1.846888275269
 H    1.545581884455   -0.837312715761   -0.950698275269
 H    1.545581884455   -0.837312715761   -2.743078275269
 K   -0.819935694881   -1.701059334609    3.509359663211
