12

 C   -0.702327018384    2.407014694788   -1.879289823958
 C    0.410014981616    1.387536694788   -1.879289823958
 O   -0.094316018384    0.121083694788   -1.879289823958
 C    0.920149981616   -0.912655305212   -1.879289823958
 O    1.607654981616    1.632029694788   -1.879289823958
 H   -0.269757018384    3.414024694788   -1.879289823958
 H   -1.334664018384    2.264442694788   -0.990674823958
 H   -1.334664018384    2.264442694788   -2.767904823958
 H    0.366052981616   -1.857779305212   -1.879289823958
 H    1.549944981616   -0.826356305212   -0.983099823958
 H    1.549944981616   -0.826356305212   -2.775479823958
 K   -0.828226221919   -1.721878127900    3.570927376601
