12

 C   -0.697963921223    2.417971105337   -1.911691372646
 C    0.414378078777    1.398493105337   -1.911691372646
 O   -0.089952921223    0.132040105337   -1.911691372646
 C    0.924513078777   -0.901698894663   -1.911691372646
 O    1.612018078777    1.642986105337   -1.911691372646
 H   -0.265393921223    3.424981105337   -1.911691372646
 H   -1.330300921223    2.275399105337   -1.023076372646
 H   -1.330300921223    2.275399105337   -2.800306372646
 H    0.370416078777   -1.846822894663   -1.911691372646
 H    1.554308078777   -0.815399894663   -1.015501372646
 H    1.554308078777   -0.815399894663   -2.807881372646
 K   -0.836516748958   -1.742696921190    3.632495089990
