12

 C   -0.693600824062    2.428927515886   -1.944092921335
 C    0.418741175938    1.409449515886   -1.944092921335
 O   -0.085589824062    0.142996515886   -1.944092921335
 C    0.928876175938   -0.890742484114   -1.944092921335
 O    1.616381175938    1.653942515886   -1.944092921335
 H   -0.261030824062    3.435937515886   -1.944092921335
 H   -1.325937824062    2.286355515886   -1.055477921335
 H   -1.325937824062    2.286355515886   -2.832707921335
 H    0.374779175938   -1.835866484114   -1.944092921335
 H    1.558671175938   -0.804443484114   -1.047902921335
 H    1.558671175938   -0.804443484114   -2.840282921335
 K   -0.844807275996   -1.763515714481    3.694062803380
