12

 C   -0.680511532580    2.461796747532   -2.041297567402
 C    0.431830467420    1.442318747532   -2.041297567402
 O   -0.072500532580    0.175865747532   -2.041297567402
 C    0.941965467420   -0.857873252468   -2.041297567402
 O    1.629470467420    1.686811747532   -2.041297567402
 H   -0.247941532580    3.468806747532   -2.041297567402
 H   -1.312848532580    2.319224747532   -1.152682567402
 H   -1.312848532580    2.319224747532   -2.929912567402
 H    0.387868467420   -1.802997252468   -2.041297567402
 H    1.571760467420   -0.771574252468   -1.145107567402
 H    1.571760467420   -0.771574252468   -2.937487567402
 K   -0.869678857110   -1.825972094353    3.878765943549
