12

 C   -0.641243658134    2.560404442472   -2.332911505602
 C    0.471098341866    1.540926442472   -2.332911505602
 O   -0.033232658134    0.274473442472   -2.332911505602
 C    0.981233341866   -0.759265557528   -2.332911505602
 O    1.668738341866    1.785419442472   -2.332911505602
 H   -0.208673658134    3.567414442472   -2.332911505602
 H   -1.273580658134    2.417832442472   -1.444296505602
 H   -1.273580658134    2.417832442472   -3.221526505602
 H    0.427136341866   -1.704389557528   -2.332911505602
 H    1.611028341866   -0.672966557528   -1.436721505602
 H    1.611028341866   -0.672966557528   -3.229101505602
 K   -0.944293600453   -2.013341233968    4.432875364056
