12

 C   -0.601975783687    2.659012137412   -2.624525443803
 C    0.510366216313    1.639534137412   -2.624525443803
 O    0.006035216313    0.373081137412   -2.624525443803
 C    1.020501216313   -0.660657862588   -2.624525443803
 O    1.708006216313    1.884027137412   -2.624525443803
 H   -0.169405783687    3.666022137412   -2.624525443803
 H   -1.234312783687    2.516440137412   -1.735910443803
 H   -1.234312783687    2.516440137412   -3.513140443803
 H    0.466404216313   -1.605781862588   -2.624525443803
 H    1.650296216313   -0.574358862588   -1.728335443803
 H    1.650296216313   -0.574358862588   -3.520715443803
 K   -1.018908343797   -2.200710373584    4.986984784563
