12

 C   -0.580160297883    2.713794190156   -2.786533187247
 C    0.532181702117    1.694316190156   -2.786533187247
 O    0.027850702117    0.427863190156   -2.786533187247
 C    1.042316702117   -0.605875809844   -2.786533187247
 O    1.729821702117    1.938809190156   -2.786533187247
 H   -0.147590297883    3.720804190156   -2.786533187247
 H   -1.212497297883    2.571222190156   -1.897918187247
 H   -1.212497297883    2.571222190156   -3.675148187247
 H    0.488219702117   -1.550999809844   -2.786533187247
 H    1.672111702117   -0.519576809844   -1.890343187247
 H    1.672111702117   -0.519576809844   -3.682723187247
 K   -1.060360978988   -2.304804340037    5.294823351511
