12

 C   -0.562707909240    2.757619832351   -2.916139382003
 C    0.549634090760    1.738141832351   -2.916139382003
 O    0.045303090760    0.471688832351   -2.916139382003
 C    1.059769090760   -0.562050167649   -2.916139382003
 O    1.747274090760    1.982634832351   -2.916139382003
 H   -0.130137909240    3.764629832351   -2.916139382003
 H   -1.195044909240    2.615047832351   -2.027524382003
 H   -1.195044909240    2.615047832351   -3.804754382003
 H    0.505672090760   -1.507174167649   -2.916139382003
 H    1.689564090760   -0.475751167649   -2.019949382003
 H    1.689564090760   -0.475751167649   -3.812329382003
 K   -1.093523087140   -2.388079513199    5.541094205070
