12

 C   -0.553981714919    2.779532653449   -2.980942479381
 C    0.558360285081    1.760054653449   -2.980942479381
 O    0.054029285081    0.493601653449   -2.980942479381
 C    1.068495285081   -0.540137346551   -2.980942479381
 O    1.756000285081    2.004547653449   -2.980942479381
 H   -0.121411714919    3.786542653449   -2.980942479381
 H   -1.186318714919    2.636960653449   -2.092327479381
 H   -1.186318714919    2.636960653449   -3.869557479381
 H    0.514398285081   -1.485261346551   -2.980942479381
 H    1.698290285081   -0.453838346551   -2.084752479381
 H    1.698290285081   -0.453838346551   -3.877132479381
 K   -1.110104141217   -2.429717099780    5.664229631849
