12

 C   -0.549618617758    2.790489063998   -3.013344028070
 C    0.562723382242    1.771011063998   -3.013344028070
 O    0.058392382242    0.504558063998   -3.013344028070
 C    1.072858382242   -0.529180936002   -3.013344028070
 O    1.760363382242    2.015504063998   -3.013344028070
 H   -0.117048617758    3.797499063998   -3.013344028070
 H   -1.181955617758    2.647917063998   -2.124729028070
 H   -1.181955617758    2.647917063998   -3.901959028070
 H    0.518761382242   -1.474304936002   -3.013344028070
 H    1.702653382242   -0.442881936002   -2.117154028070
 H    1.702653382242   -0.442881936002   -3.909534028070
 K   -1.118394668255   -2.450535893071    5.725797345239
