12

 C   -0.545255520597    2.801445474546   -3.045745576759
 C    0.567086479403    1.781967474546   -3.045745576759
 O    0.062755479403    0.515514474546   -3.045745576759
 C    1.077221479403   -0.518224525454   -3.045745576759
 O    1.764726479403    2.026460474546   -3.045745576759
 H   -0.112685520597    3.808455474546   -3.045745576759
 H   -1.177592520597    2.658873474546   -2.157130576759
 H   -1.177592520597    2.658873474546   -3.934360576759
 H    0.523124479403   -1.463348525454   -3.045745576759
 H    1.707016479403   -0.431925525454   -2.149555576759
 H    1.707016479403   -0.431925525454   -3.941935576759
 K   -1.126685195293   -2.471354686362    5.787365058629
