7

 C    0.167236044416    0.998551355126    0.000000000000
 O    0.167236044416   -0.436334644874    0.000000000000
 H    1.086246044416   -0.733135644874    0.000000000000
 H   -0.886082955584    1.306540355126    0.000000000000
 H    0.655902044416    1.409484355126    0.899440000000
 H    0.655902044416    1.409484355126   -0.899440000000
LI   -0.884486048272   -1.200455472855    0.000000000000
