7

 C    0.181774321893    1.009114031996    0.000000000000
 O    0.181774321893   -0.425771968004    0.000000000000
 H    1.100784321893   -0.722572968004    0.000000000000
 H   -0.871544678107    1.317103031996    0.000000000000
 H    0.670440321893    1.420047031996    0.899440000000
 H    0.670440321893    1.420047031996   -0.899440000000
LI   -0.950849470232   -1.248671321213    0.000000000000
