7

 C    1.432066184888    1.917504242881    0.000000000000
 O    1.432066184888    0.482618242881    0.000000000000
 H    2.351076184888    0.185817242881    0.000000000000
 H    0.378747184888    2.225493242881    0.000000000000
 H    1.920732184888    2.328437242881    0.899440000000
 H    1.920732184888    2.328437242881   -0.899440000000
LI   -6.658103758862   -5.395234280043    0.000000000000
