7

 C    0.269003986753    1.072490093221    0.000000000000
 O    0.269003986753   -0.362395906779    0.000000000000
 H    1.188013986753   -0.659196906779    0.000000000000
 H   -0.784315013247    1.380479093221    0.000000000000
 H    0.757669986753    1.483423093221    0.899440000000
 H    0.757669986753    1.483423093221   -0.899440000000
LI   -1.349030001997   -1.537966411364    0.000000000000
