7

 C    0.312618819183    1.104178123833    0.000000000000
 O    0.312618819183   -0.330707876167    0.000000000000
 H    1.231628819183   -0.627508876167    0.000000000000
 H   -0.740700180817    1.412167123833    0.000000000000
 H    0.801284819183    1.515111123833    0.899440000000
 H    0.801284819183    1.515111123833   -0.899440000000
LI   -1.548120267880   -1.682613956440    0.000000000000
