7

 C    0.356233651613    1.135866154445    0.000000000000
 O    0.356233651613   -0.299019845555    0.000000000000
 H    1.275243651613   -0.595820845555    0.000000000000
 H   -0.697085348387    1.443855154445    0.000000000000
 H    0.844899651613    1.546799154445    0.899440000000
 H    0.844899651613    1.546799154445   -0.899440000000
LI   -1.747210533762   -1.827261501515    0.000000000000
