7

 C    0.443463316473    1.199242215670    0.000000000000
 O    0.443463316473   -0.235643784330    0.000000000000
 H    1.362473316473   -0.532444784330    0.000000000000
 H   -0.609855683527    1.507231215670    0.000000000000
 H    0.932129316473    1.610175215670    0.899440000000
 H    0.932129316473    1.610175215670   -0.899440000000
LI   -2.145391065527   -2.116556591666    0.000000000000
