7

 C    0.458001593950    1.209804892541    0.000000000000
 O    0.458001593950   -0.225081107459    0.000000000000
 H    1.377011593950   -0.521882107459    0.000000000000
 H   -0.595317406050    1.517793892541    0.000000000000
 H    0.946667593950    1.620737892541    0.899440000000
 H    0.946667593950    1.620737892541   -0.899440000000
LI   -2.211754487488   -2.164772440024    0.000000000000
