7

 C    0.530692981333    1.262618276894    0.000000000000
 O    0.530692981333   -0.172267723106    0.000000000000
 H    1.449702981333   -0.469068723106    0.000000000000
 H   -0.522626018667    1.570607276894    0.000000000000
 H    1.019358981333    1.673551276894    0.899440000000
 H    1.019358981333    1.673551276894   -0.899440000000
LI   -2.543571597292   -2.405851681817    0.000000000000
