7

 C    0.676075756100    1.368245045602    0.000000000000
 O    0.676075756100   -0.066640954398    0.000000000000
 H    1.595085756100   -0.363441954398    0.000000000000
 H   -0.377243243900    1.676234045602    0.000000000000
 H    1.164741756100    1.779178045602    0.899440000000
 H    1.164741756100    1.779178045602   -0.899440000000
LI   -3.207205816900   -2.888010165402    0.000000000000
