7

 C    0.690614033577    1.378807722473    0.000000000000
 O    0.690614033577   -0.056078277527    0.000000000000
 H    1.609624033577   -0.352879277527    0.000000000000
 H   -0.362704966423    1.686796722473    0.000000000000
 H    1.179280033577    1.789740722473    0.899440000000
 H    1.179280033577    1.789740722473   -0.899440000000
LI   -3.273569238861   -2.936226013760    0.000000000000
