7

 C    0.705152311053    1.389370399344    0.000000000000
 O    0.705152311053   -0.045515600656    0.000000000000
 H    1.624162311053   -0.342316600656    0.000000000000
 H   -0.348166688947    1.697359399344    0.000000000000
 H    1.193818311053    1.800303399344    0.899440000000
 H    1.193818311053    1.800303399344   -0.899440000000
LI   -3.339932660821   -2.984441862119    0.000000000000
