7

 C    0.734228866007    1.410495753085    0.000000000000
 O    0.734228866007   -0.024390246915    0.000000000000
 H    1.653238866007   -0.321191246915    0.000000000000
 H   -0.319090133993    1.718484753085    0.000000000000
 H    1.222894866007    1.821428753085    0.899440000000
 H    1.222894866007    1.821428753085   -0.899440000000
LI   -3.472659504743   -3.080873558836    0.000000000000
