7

 C    0.777843698437    1.442183783697    0.000000000000
 O    0.777843698437    0.007297783697    0.000000000000
 H    1.696853698437   -0.289503216303    0.000000000000
 H   -0.275475301563    1.750172783697    0.000000000000
 H    1.266509698437    1.853116783697    0.899440000000
 H    1.266509698437    1.853116783697   -0.899440000000
LI   -3.671749770625   -3.225521103911    0.000000000000
