7

 C    0.792381975914    1.452746460568    0.000000000000
 O    0.792381975914    0.017860460568    0.000000000000
 H    1.711391975914   -0.278940539432    0.000000000000
 H   -0.260937024086    1.760735460568    0.000000000000
 H    1.281047975914    1.863679460568    0.899440000000
 H    1.281047975914    1.863679460568   -0.899440000000
LI   -3.738113192586   -3.273736952270    0.000000000000
