7

 C    0.806920253390    1.463309137439    0.000000000000
 O    0.806920253390    0.028423137439    0.000000000000
 H    1.725930253390   -0.268377862561    0.000000000000
 H   -0.246398746610    1.771298137439    0.000000000000
 H    1.295586253390    1.874242137439    0.899440000000
 H    1.295586253390    1.874242137439   -0.899440000000
LI   -3.804476614547   -3.321952800628    0.000000000000
