7

 C    0.835996808344    1.484434491180    0.000000000000
 O    0.835996808344    0.049548491180    0.000000000000
 H    1.755006808344   -0.247252508820    0.000000000000
 H   -0.217322191656    1.792423491180    0.000000000000
 H    1.324662808344    1.895367491180    0.899440000000
 H    1.324662808344    1.895367491180   -0.899440000000
LI   -3.937203458469   -3.418384497345    0.000000000000
