7

 C    0.850535085820    1.494997168051    0.000000000000
 O    0.850535085820    0.060111168051    0.000000000000
 H    1.769545085820   -0.236689831949    0.000000000000
 H   -0.202783914180    1.802986168051    0.000000000000
 H    1.339201085820    1.905930168051    0.899440000000
 H    1.339201085820    1.905930168051   -0.899440000000
LI   -4.003566880429   -3.466600345704    0.000000000000
