7

 C    0.995917860587    1.600623936759    0.000000000000
 O    0.995917860587    0.165737936759    0.000000000000
 H    1.914927860587   -0.131063063241    0.000000000000
 H   -0.057401139413    1.908612936759    0.000000000000
 H    1.484583860587    2.011556936759    0.899440000000
 H    1.484583860587    2.011556936759   -0.899440000000
LI   -4.667201100037   -3.948758829289    0.000000000000
