27

 P   -1.313348283073    1.432179791873   -0.820017530619
 O   -2.277628283073    2.559639791873   -1.156417530619
 O   -0.749418283073    0.430649791873   -1.836797530619
 O    0.013471716927    1.984239791873    0.082102469381
 O   -1.854898283073    0.510539791873    0.497692469381
 C    0.662071716927    3.112789791873   -0.513427530619
 H    0.009811716927    3.996949791873   -0.461727530619
 H    0.920291716927    2.910019791873   -1.566777530619
 H    1.581921716927    3.292719791873    0.059352469381
 C   -3.206288283073    0.062839791873    0.347372469381
 H   -3.346758283073   -0.453240208127   -0.617437530619
 H   -3.898158283073    0.915739791873    0.408622469381
 H   -3.404608283073   -0.639110208127    1.168542469381
 K    0.526531716927   -0.574170208127    0.328752469381
 P    1.149227077222   -1.253206251851    0.717546167365
 O   -0.177598734061   -1.805264482624   -0.184577629433
 O    1.690776050110   -0.331568285362   -0.600167965932
 O    2.113499426922   -2.380663240294    1.053939222751
 O    0.585295571160   -0.251678662668    1.734319903000
 C   -0.826199121726   -2.933810623319    0.410959407069
 H   -0.173943089510   -3.817981079693    0.359261475644
 H   -1.084420105688   -2.731039983655    1.464307915413
 H   -1.746057932736   -3.113739519571   -0.161821321133
 C    3.042163909158    0.116131119787   -0.449854167676
 H    3.182630666561    0.632207432865    0.514952646533
 H    3.734031195421   -0.736767292796   -0.511107409332
 H    3.240484628802    0.818082173809   -1.271029118292
