27

 P   -1.340284866946    1.461553563561   -0.836835985874
 O   -2.304564866946    2.589013563561   -1.173235985874
 O   -0.776354866946    0.460023563561   -1.853615985874
 O   -0.013464866946    2.013613563561    0.065284014126
 O   -1.881834866946    0.539913563561    0.480874014126
 C    0.635135133054    3.142163563561   -0.530245985874
 H   -0.017124866946    4.026323563561   -0.478545985874
 H    0.893355133054    2.939393563561   -1.583595985874
 H    1.554985133054    3.322093563561    0.042534014126
 C   -3.233224866946    0.092213563561    0.330554014126
 H   -3.373694866946   -0.423866436439   -0.634255985874
 H   -3.925094866946    0.945113563561    0.391804014126
 H   -3.431544866946   -0.609736436439    1.151724014126
 K    0.499595133054   -0.544796436439    0.311934014126
 P    1.184560029378   -1.291736084535    0.739607081907
 O   -0.142265781905   -1.843794315309   -0.162516714890
 O    1.726109002266   -0.370098118046   -0.578107051389
 O    2.148832379079   -2.419193072979    1.076000137294
 O    0.620628523317   -0.290208495353    1.756380817543
 C   -0.790866169569   -2.972340456003    0.433020321611
 H   -0.138610137353   -3.856510912377    0.381322390187
 H   -1.049087153531   -2.769569816339    1.486368829956
 H   -1.710724980580   -3.152269352256   -0.139760406590
 C    3.077496861315    0.077601287102   -0.427793253134
 H    3.217963618718    0.593677600181    0.537013561075
 H    3.769364147577   -0.775297125481   -0.489046494790
 H    3.275817580958    0.779552341124   -1.248968203749
