27

 P   -1.421094618564    1.549674878625   -0.887291351641
 O   -2.385374618564    2.677134878625   -1.223691351641
 O   -0.857164618564    0.548144878625   -1.904071351641
 O   -0.094274618564    2.101734878625    0.014828648359
 O   -1.962644618564    0.628034878625    0.430418648359
 C    0.554325381436    3.230284878625   -0.580701351641
 H   -0.097934618564    4.114444878625   -0.529001351641
 H    0.812545381436    3.027514878625   -1.634051351641
 H    1.474175381436    3.410214878625   -0.007921351641
 C   -3.314034618564    0.180334878625    0.280098648359
 H   -3.454504618564   -0.335745121375   -0.684711351641
 H   -4.005904618564    1.033234878625    0.341348648359
 H   -3.512354618564   -0.521615121375    1.101268648359
 K    0.418785381436   -0.456675121375    0.261478648359
 P    1.290558885848   -1.407325582589    0.805789825536
 O   -0.036266925435   -1.959383813362   -0.096333971262
 O    1.832107858736   -0.485687616100   -0.511924307761
 O    2.254831235549   -2.534782571032    1.142182880922
 O    0.726627379787   -0.405797993406    1.822563561171
 C   -0.684867313099   -3.087929954057    0.499203065240
 H   -0.032611280883   -3.972100410430    0.447505133815
 H   -0.943088297061   -2.885159314393    1.552551573584
 H   -1.604726124110   -3.267858850309   -0.073577662962
 C    3.183495717785   -0.037988210951   -0.361610509505
 H    3.323962475188    0.478088102127    0.603196304704
 H    3.875363004047   -0.890886623534   -0.422863751161
 H    3.381816437428    0.663962843071   -1.182785460121
