27

 P   -1.448031202437    1.579048650313   -0.904109806896
 O   -2.412311202437    2.706508650313   -1.240509806896
 O   -0.884101202437    0.577518650313   -1.920889806896
 O   -0.121211202437    2.131108650313   -0.001989806896
 O   -1.989581202437    0.657408650313    0.413600193104
 C    0.527388797563    3.259658650313   -0.597519806896
 H   -0.124871202437    4.143818650313   -0.545819806896
 H    0.785608797563    3.056888650313   -1.650869806896
 H    1.447238797563    3.439588650313   -0.024739806896
 C   -3.340971202437    0.209708650313    0.263280193104
 H   -3.481441202437   -0.306371349687   -0.701529806896
 H   -4.032841202437    1.062608650313    0.324530193104
 H   -3.539291202437   -0.492241349687    1.084450193104
 K    0.391848797563   -0.427301349687    0.244660193104
 P    1.325891838005   -1.445855415273    0.827850740079
 O   -0.000933973278   -1.997913646047   -0.074273056719
 O    1.867440810893   -0.524217448784   -0.489863393218
 O    2.290164187706   -2.573312403717    1.164243795465
 O    0.761960331943   -0.444327826091    1.844624475714
 C   -0.649534360942   -3.126459786741    0.521263979783
 H    0.002721671274   -4.010630243115    0.469566048358
 H   -0.907755344905   -2.923689147077    1.574612488127
 H   -1.569393171953   -3.306388682994   -0.051516748419
 C    3.218828669942   -0.076518043635   -0.339549594962
 H    3.359295427344    0.439558269443    0.625257219247
 H    3.910695956204   -0.929416456218   -0.400802836618
 H    3.417149389585    0.625433010386   -1.160724545578
