27

 P   -1.555777537928    1.696543737065   -0.971383627918
 O   -2.520057537928    2.824003737065   -1.307783627918
 O   -0.991847537928    0.695013737065   -1.988163627918
 O   -0.228957537928    2.248603737065   -0.069263627918
 O   -2.097327537928    0.774903737065    0.346326372082
 C    0.419642462072    3.377153737065   -0.664793627918
 H   -0.232617537928    4.261313737065   -0.613093627918
 H    0.677862462072    3.174383737065   -1.718143627918
 H    1.339492462072    3.557083737065   -0.092013627918
 C   -3.448717537928    0.327203737065    0.196006372082
 H   -3.589187537928   -0.188876262935   -0.768803627918
 H   -4.140587537928    1.180103737065    0.257256372082
 H   -3.647037537928   -0.374746262935    1.017176372082
 K    0.284102462072   -0.309806262935    0.177386372082
 P    1.467223646632   -1.599974746011    0.916094398250
 O    0.140397835349   -2.152032976785    0.013970601452
 O    2.008772619520   -0.678336779522   -0.401619735047
 O    2.431495996332   -2.727431734455    1.252487453636
 O    0.903292140570   -0.598447156828    1.932868133885
 C   -0.508202552316   -3.280579117479    0.609507637954
 H    0.144053479900   -4.164749573853    0.557809706529
 H   -0.766423536278   -3.077808477815    1.662856146298
 H   -1.428061363326   -3.460508013732    0.036726909752
 C    3.360160478568   -0.230637374373   -0.251305936791
 H    3.500627235971    0.285438938705    0.713500877418
 H    4.052027764830   -1.083535786956   -0.312559178447
 H    3.558481198211    0.471313679648   -1.072480887407
