27

 P   -1.636587289546    1.784665052128   -1.021838993685
 O   -2.600867289546    2.912125052128   -1.358238993685
 O   -1.072657289546    0.783135052128   -2.038618993685
 O   -0.309767289546    2.336725052128   -0.119718993685
 O   -2.178137289546    0.863025052128    0.295871006315
 C    0.338832710454    3.465275052128   -0.715248993685
 H   -0.313427289546    4.349435052128   -0.663548993685
 H    0.597052710454    3.262505052128   -1.768598993685
 H    1.258682710454    3.645205052128   -0.142468993685
 C   -3.529527289546    0.415325052128    0.145551006315
 H   -3.669997289546   -0.100754947872   -0.819258993685
 H   -4.221397289546    1.268225052128    0.206801006315
 H   -3.727847289546   -0.286624947872    0.966721006315
 K    0.203292710454   -0.221684947872    0.126931006315
 P    1.573222503102   -1.715564244064    0.982277141878
 O    0.246396691819   -2.267622474838    0.080153345081
 O    2.114771475990   -0.793926277575   -0.335436991419
 O    2.537494852802   -2.843021232508    1.318670197264
 O    1.009290997040   -0.714036654882    1.999050877513
 C   -0.402203695846   -3.396168615533    0.675690381582
 H    0.250052336370   -4.280339071906    0.623992450158
 H   -0.660424679808   -3.193397975869    1.729038889927
 H   -1.322062506857   -3.576097511785    0.102909653380
 C    3.466159335038   -0.346226872427   -0.185123193163
 H    3.606626092441    0.169849440652    0.779683621046
 H    4.158026621300   -1.199125285010   -0.246376434819
 H    3.664480054681    0.355724181595   -1.006298143778
