27

 P   -1.663523873419    1.814038823816   -1.038657448940
 O   -2.627803873419    2.941498823816   -1.375057448940
 O   -1.099593873419    0.812508823816   -2.055437448940
 O   -0.336703873419    2.366098823816   -0.136537448940
 O   -2.205073873419    0.892398823816    0.279052551060
 C    0.311896126581    3.494648823816   -0.732067448940
 H   -0.340363873419    4.378808823816   -0.680367448940
 H    0.570116126581    3.291878823816   -1.785417448940
 H    1.231746126581    3.674578823816   -0.159287448940
 C   -3.556463873419    0.444698823816    0.128732551060
 H   -3.696933873419   -0.071381176184   -0.836077448940
 H   -4.248333873419    1.297598823816    0.189982551060
 H   -3.754783873419   -0.257251176184    0.949902551060
 K    0.176356126581   -0.192311176184    0.110112551060
 P    1.608555455258   -1.754094076749    1.004338056421
 O    0.281729643975   -2.306152307522    0.102214259624
 O    2.150104428146   -0.832456110260   -0.313376076876
 O    2.572827804959   -2.881551065193    1.340731111807
 O    1.044623949197   -0.752566487566    2.021111792056
 C   -0.366870743689   -3.434698448217    0.697751296125
 H    0.285385288527   -4.318868904591    0.646053364700
 H   -0.625091727652   -3.231927808553    1.751099804470
 H   -1.286729554700   -3.614627344469    0.124970567923
 C    3.501492287195   -0.384756705111   -0.163062278620
 H    3.641959044598    0.131319607967    0.801744535589
 H    4.193359573457   -1.237655117694   -0.224315520276
 H    3.699813006838    0.317194348910   -0.984237229235
