27

 P   -1.690460457292    1.843412595504   -1.055475904196
 O   -2.654740457292    2.970872595504   -1.391875904196
 O   -1.126530457292    0.841882595504   -2.072255904196
 O   -0.363640457292    2.395472595504   -0.153355904196
 O   -2.232010457292    0.921772595504    0.262234095804
 C    0.284959542708    3.524022595504   -0.748885904196
 H   -0.367300457292    4.408182595504   -0.697185904196
 H    0.543179542708    3.321252595504   -1.802235904196
 H    1.204809542708    3.703952595504   -0.176105904196
 C   -3.583400457292    0.474072595504    0.111914095804
 H   -3.723870457292   -0.042007404496   -0.852895904196
 H   -4.275270457292    1.326972595504    0.173164095804
 H   -3.781720457292   -0.227877404496    0.933084095804
 K    0.149419542708   -0.162937404496    0.093294095804
 P    1.643888407415   -1.792623909433    1.026398970964
 O    0.317062596132   -2.344682140207    0.124275174166
 O    2.185437380303   -0.870985942944   -0.291315162333
 O    2.608160757116   -2.920080897877    1.362792026350
 O    1.079956901353   -0.791096320251    2.043172706599
 C   -0.331537791533   -3.473228280901    0.719812210668
 H    0.320718240684   -4.357398737275    0.668114279243
 H   -0.589758775495   -3.270457641237    1.773160719012
 H   -1.251396602543   -3.653157177154    0.147031482466
 C    3.536825239351   -0.423286537796   -0.141001364077
 H    3.677291996754    0.092789775283    0.823805450132
 H    4.228692525614   -1.276184950379   -0.202254605733
 H    3.735145958995    0.278664516226   -0.962176314693
