27

 P   -1.744333625037    1.902160138880   -1.089112814707
 O   -2.708613625037    3.029620138880   -1.425512814707
 O   -1.180403625037    0.900630138880   -2.105892814707
 O   -0.417513625037    2.454220138880   -0.186992814707
 O   -2.285883625037    0.980520138880    0.228597185293
 C    0.231086374963    3.582770138880   -0.782522814707
 H   -0.421173625037    4.466930138880   -0.730822814707
 H    0.489306374963    3.380000138880   -1.835872814707
 H    1.150936374963    3.762700138880   -0.209742814707
 C   -3.637273625037    0.532820138880    0.078277185293
 H   -3.777743625037    0.016740138880   -0.886532814707
 H   -4.329143625037    1.385720138880    0.139527185293
 H   -3.835593625037   -0.169129861120    0.899447185293
 K    0.095546374963   -0.104189861120    0.059657185293
 P    1.714554311728   -1.869683574802    1.070520800049
 O    0.387728500445   -2.421741805576    0.168397003252
 O    2.256103284616   -0.948045608313   -0.247193333247
 O    2.678826661429   -2.997140563246    1.406913855436
 O    1.150622805667   -0.868155985620    2.087294535685
 C   -0.260871887219   -3.550287946270    0.763934039753
 H    0.391384144997   -4.434458402644    0.712236108329
 H   -0.519092871182   -3.347517306606    1.817282548098
 H   -1.180730698230   -3.730216842523    0.191153311552
 C    3.607491143665   -0.500346203165   -0.096879534992
 H    3.747957901068    0.015730109914    0.867927279217
 H    4.299358429927   -1.353244615748   -0.158132776648
 H    3.805811863308    0.201604850857   -0.918054485607
