27

 P   -1.798206792783    1.960907682256   -1.122749725218
 O   -2.762486792783    3.088367682256   -1.459149725218
 O   -1.234276792783    0.959377682256   -2.139529725218
 O   -0.471386792783    2.512967682256   -0.220629725218
 O   -2.339756792783    1.039267682256    0.194960274782
 C    0.177213207217    3.641517682256   -0.816159725218
 H   -0.475046792783    4.525677682256   -0.764459725218
 H    0.435433207217    3.438747682256   -1.869509725218
 H    1.097063207217    3.821447682256   -0.243379725218
 C   -3.691146792783    0.591567682256    0.044640274782
 H   -3.831616792783    0.075487682256   -0.920169725218
 H   -4.383016792783    1.444467682256    0.105890274782
 H   -3.889466792783   -0.110382317744    0.865810274782
 K    0.041673207217   -0.045442317744    0.026020274782
 P    1.785220216041   -1.946743240171    1.114642629135
 O    0.458394404759   -2.498801470945    0.212518832338
 O    2.326769188930   -1.025105273682   -0.203071504162
 O    2.749492565742   -3.074200228615    1.451035684521
 O    1.221288709980   -0.945215650989    2.131416364770
 C   -0.190205982906   -3.627347611639    0.808055868839
 H    0.462050049310   -4.511518068013    0.756357937414
 H   -0.448426966868   -3.424576971975    1.861404377184
 H   -1.110064793917   -3.807276507892    0.235275140637
 C    3.678157047978   -0.577405868534   -0.052757705906
 H    3.818623805381   -0.061329555455    0.912049108303
 H    4.370024334240   -1.430304281117   -0.114010947562
 H    3.876477767621    0.124545185488   -0.873932656521
