27

 P   -1.879016544401    2.049028997320   -1.173205090985
 O   -2.843296544401    3.176488997320   -1.509605090985
 O   -1.315086544401    1.047498997320   -2.189985090985
 O   -0.552196544401    2.601088997320   -0.271085090985
 O   -2.420566544401    1.127388997320    0.144504909015
 C    0.096403455599    3.729638997320   -0.866615090985
 H   -0.555856544401    4.613798997320   -0.814915090985
 H    0.354623455599    3.526868997320   -1.919965090985
 H    1.016253455599    3.909568997320   -0.293835090985
 C   -3.771956544401    0.679688997320   -0.005815090985
 H   -3.912426544401    0.163608997320   -0.970625090985
 H   -4.463826544401    1.532588997320    0.055434909015
 H   -3.970276544401   -0.022261002680    0.815354909015
 K   -0.039136544401    0.042678997320   -0.024435090985
 P    1.891219072511   -2.062332738225    1.180825372763
 O    0.564393261228   -2.614390968998    0.278701575966
 O    2.432768045400   -1.140694771736   -0.136888760533
 O    2.855491422212   -3.189789726668    1.517218428150
 O    1.327287566450   -1.060805149042    2.197599108399
 C   -0.084207126436   -3.742937109693    0.874238612467
 H    0.568048905780   -4.627107566066    0.822540681043
 H   -0.342428110398   -3.540166470029    1.927587120812
 H   -1.004065937447   -3.922866005945    0.301457884266
 C    3.784155904448   -0.692995366587    0.013425037722
 H    3.924622661851   -0.176919053509    0.978231851931
 H    4.476023190710   -1.545893779170   -0.047828203934
 H    3.982476624091    0.008955687435   -0.807749912893
