27

 P   -1.986762879893    2.166524084071   -1.240478912007
 O   -2.951042879893    3.293984084071   -1.576878912007
 O   -1.422832879893    1.164994084071   -2.257258912007
 O   -0.659942879893    2.718584084071   -0.338358912007
 O   -2.528312879893    1.244884084071    0.077231087993
 C   -0.011342879893    3.847134084071   -0.933888912007
 H   -0.663602879893    4.731294084071   -0.882188912007
 H    0.246877120107    3.644364084071   -1.987238912007
 H    0.908507120107    4.027064084071   -0.361108912007
 C   -3.879702879893    0.797184084071   -0.073088912007
 H   -4.020172879893    0.281104084071   -1.037898912007
 H   -4.571572879893    1.650084084071   -0.011838912007
 H   -4.078022879893    0.095234084071    0.748081087993
 K   -0.146882879893    0.160174084071   -0.091708912007
 P    2.032550881138   -2.216452068962    1.269069030935
 O    0.705725069855   -2.768510299736    0.366945234137
 O    2.574099854026   -1.294814102474   -0.048645102362
 O    2.996823230839   -3.343909057406    1.605462086321
 O    1.468619375077   -1.214924479780    2.285842766570
 C    0.057124682191   -3.897056440431    0.962482270639
 H    0.709380714407   -4.781226896804    0.910784339214
 H   -0.201096301772   -3.694285800767    2.015830778983
 H   -0.862734128820   -4.076985336683    0.389701542437
 C    3.925487713075   -0.847114697325    0.101668695893
 H    4.065954470478   -0.331038384246    1.066475510102
 H    4.617354999337   -1.700013109908    0.040415454237
 H    4.123808432718   -0.145163643303   -0.719506254722
