27

 P   -2.013699463765    2.195897855759   -1.257297367262
 O   -2.977979463765    3.323357855759   -1.593697367262
 O   -1.449769463765    1.194367855759   -2.274077367262
 O   -0.686879463765    2.747957855759   -0.355177367262
 O   -2.555249463765    1.274257855759    0.060412632738
 C   -0.038279463765    3.876507855759   -0.950707367262
 H   -0.690539463765    4.760667855759   -0.899007367262
 H    0.219940536235    3.673737855759   -2.004057367262
 H    0.881570536235    4.056437855759   -0.377927367262
 C   -3.906639463765    0.826557855759   -0.089907367262
 H   -4.047109463765    0.310477855759   -1.054717367262
 H   -4.598509463765    1.679457855759   -0.028657367262
 H   -4.104959463765    0.124607855759    0.731262632738
 K   -0.173819463765    0.189547855759   -0.108527367262
 P    2.067883833295   -2.254981901647    1.291129945477
 O    0.741058022012   -2.807040132421    0.389006148680
 O    2.609432806183   -1.333343935158   -0.026584187819
 O    3.032156182995   -3.382438890091    1.627523000864
 O    1.503952327233   -1.253454312464    2.307903681113
 C    0.092457634347   -3.935586273115    0.984543185181
 H    0.744713666563   -4.819756729489    0.932845253757
 H   -0.165763349615   -3.732815633451    2.037891693526
 H   -0.827401176663   -4.115515169368    0.411762456980
 C    3.960820665231   -0.885644530009    0.123729610436
 H    4.101287422634   -0.369568216931    1.088536424645
 H    4.652687951494   -1.738542942592    0.062476368780
 H    4.159141384875   -0.183693475988   -0.697445340179
