27

 P   -2.229192134748    2.430888029263   -1.391845009307
 O   -3.193472134748    3.558348029263   -1.728245009307
 O   -1.665262134748    1.429358029263   -2.408625009307
 O   -0.902372134748    2.982948029263   -0.489725009307
 O   -2.770742134748    1.509248029263   -0.074135009307
 C   -0.253772134748    4.111498029263   -1.085255009307
 H   -0.906032134748    4.995658029263   -1.033555009307
 H    0.004447865252    3.908728029263   -2.138605009307
 H    0.666077865252    4.291428029263   -0.512475009307
 C   -4.122132134748    1.061548029263   -0.224455009307
 H   -4.262602134748    0.545468029263   -1.189265009307
 H   -4.814002134748    1.914448029263   -0.163205009307
 H   -4.320452134748    0.359598029263    0.596714990693
 K   -0.389312134748    0.424538029263   -0.243075009307
 P    2.350547450548   -2.563220563123    1.467617261820
 O    1.023721639265   -3.115278793896    0.565493465022
 O    2.892096423436   -1.641582596634    0.149903128523
 O    3.314819800249   -3.690677551566    1.804010317206
 O    1.786615944486   -1.561692973940    2.484390997455
 C    0.375121251601   -4.243824934591    1.161030501524
 H    1.027377283817   -5.127995390965    1.109332570099
 H    0.116900267638   -4.041054294927    2.214379009868
 H   -0.544737559410   -4.423753830843    0.588249773322
 C    4.243484282485   -1.193883191485    0.300216926779
 H    4.383951039887   -0.677806878407    1.265023740988
 H    4.935351568747   -2.046781604068    0.238963685123
 H    4.441805002128   -0.491932137463   -0.520958023837
