27

 P   -2.283065302493    2.489635572638   -1.425481919818
 O   -3.247345302493    3.617095572638   -1.761881919818
 O   -1.719135302493    1.488105572638   -2.442261919818
 O   -0.956245302493    3.041695572638   -0.523361919818
 O   -2.824615302493    1.567995572638   -0.107771919818
 C   -0.307645302493    4.170245572638   -1.118891919818
 H   -0.959905302493    5.054405572638   -1.067191919818
 H   -0.049425302493    3.967475572638   -2.172241919818
 H    0.612204697507    4.350175572638   -0.546111919818
 C   -4.176005302493    1.120295572638   -0.258091919818
 H   -4.316475302493    0.604215572638   -1.222901919818
 H   -4.867875302493    1.973195572638   -0.196841919818
 H   -4.374325302493    0.418345572638    0.563078080182
 K   -0.443185302493    0.483285572638   -0.276711919818
 P    2.421213354861   -2.640280228492    1.511739090905
 O    1.094387543578   -3.192338459265    0.609615294108
 O    2.962762327749   -1.718642262003    0.194024957609
 O    3.385485704562   -3.767737216935    1.848132146292
 O    1.857281848800   -1.638752639309    2.528512826541
 C    0.445787155914   -4.320884599960    1.205152330609
 H    1.098043188130   -5.205055056334    1.153454399185
 H    0.187566171952   -4.118113960296    2.258500838954
 H   -0.474071655097   -4.500813496212    0.632371602408
 C    4.314150186798   -1.270942856854    0.344338755864
 H    4.454616944201   -0.754866543776    1.309145570073
 H    5.006017473060   -2.123841269437    0.283085514208
 H    4.512470906441   -0.568991802832   -0.476836194751
