27

 P   -2.336938470239    2.548383116014   -1.459118830329
 O   -3.301218470239    3.675843116014   -1.795518830329
 O   -1.773008470239    1.546853116014   -2.475898830329
 O   -1.010118470239    3.100443116014   -0.556998830329
 O   -2.878488470239    1.626743116014   -0.141408830329
 C   -0.361518470239    4.228993116014   -1.152528830329
 H   -1.013778470239    5.113153116014   -1.100828830329
 H   -0.103298470239    4.026223116014   -2.205878830329
 H    0.558331529761    4.408923116014   -0.579748830329
 C   -4.229878470239    1.179043116014   -0.291728830329
 H   -4.370348470239    0.662963116014   -1.256538830329
 H   -4.921748470239    2.031943116014   -0.230478830329
 H   -4.428198470239    0.477093116014    0.529441169671
 K   -0.497058470239    0.542033116014   -0.310348830329
 P    2.491879259175   -2.717339893861    1.555860919991
 O    1.165053447892   -3.269398124634    0.653737123193
 O    3.033428232063   -1.795701927372    0.238146786694
 O    3.456151608875   -3.844796882304    1.892253975377
 O    1.927947753113   -1.715812304678    2.572634655626
 C    0.516453060227   -4.397944265329    1.249274159695
 H    1.168709092443   -5.282114721702    1.197576228270
 H    0.258232076265   -4.195173625665    2.302622668040
 H   -0.403405750783   -4.577873161581    0.676493431493
 C    4.384816091111   -1.348002522223    0.388460584950
 H    4.525282848514   -0.831926209145    1.353267399159
 H    5.076683377373   -2.200900934806    0.327207343294
 H    4.583136810754   -0.646051468201   -0.432714365665
