27

 P   -2.390811637984    2.607130659390   -1.492755740840
 O   -3.355091637984    3.734590659390   -1.829155740840
 O   -1.826881637984    1.605600659390   -2.509535740840
 O   -1.063991637984    3.159190659390   -0.590635740840
 O   -2.932361637984    1.685490659390   -0.175045740840
 C   -0.415391637984    4.287740659390   -1.186165740840
 H   -1.067651637984    5.171900659390   -1.134465740840
 H   -0.157171637984    4.084970659390   -2.239515740840
 H    0.504458362016    4.467670659390   -0.613385740840
 C   -4.283751637984    1.237790659390   -0.325365740840
 H   -4.424221637984    0.721710659390   -1.290175740840
 H   -4.975621637984    2.090690659390   -0.264115740840
 H   -4.482071637984    0.535840659390    0.495804259160
 K   -0.550931637984    0.600780659390   -0.343985740840
 P    2.562545163488   -2.794399559230    1.599982749077
 O    1.235719352205   -3.346457790003    0.697858952279
 O    3.104094136376   -1.872761592741    0.282268615780
 O    3.526817513189   -3.921856547673    1.936375804463
 O    1.998613657426   -1.792871970047    2.616756484712
 C    0.587118964540   -4.475003930698    1.293395988781
 H    1.239374996757   -5.359174387071    1.241698057356
 H    0.328897980578   -4.272233291034    2.346744497125
 H   -0.332739846470   -4.654932826950    0.720615260579
 C    4.455481995424   -1.425062187592    0.432582414035
 H    4.595948752827   -0.908985874514    1.397389228244
 H    5.147349281687   -2.277960600175    0.371329172379
 H    4.653802715068   -0.723111133570   -0.388592536580
