27

 P   -2.471621389603    2.695251974454   -1.543211106606
 O   -3.435901389603    3.822711974454   -1.879611106606
 O   -1.907691389603    1.693721974454   -2.559991106606
 O   -1.144801389603    3.247311974454   -0.641091106606
 O   -3.013171389603    1.773611974454   -0.225501106606
 C   -0.496201389603    4.375861974454   -1.236621106606
 H   -1.148461389603    5.260021974454   -1.184921106606
 H   -0.237981389603    4.173091974454   -2.289971106606
 H    0.423648610397    4.555791974454   -0.663841106606
 C   -4.364561389603    1.325911974454   -0.375821106606
 H   -4.505031389603    0.809831974454   -1.340631106606
 H   -5.056431389603    2.178811974454   -0.314571106606
 H   -4.562881389603    0.623961974454    0.445348893394
 K   -0.631741389603    0.688901974454   -0.394441106606
 P    2.668544019958   -2.909989057283    1.666165492705
 O    1.341718208675   -3.462047288057    0.764041695907
 O    3.210092992846   -1.988351090794    0.348451359408
 O    3.632816369659   -4.037446045727    2.002558548091
 O    2.104612513896   -1.908461468100    2.682939228340
 C    0.693117821010   -4.590593428751    1.359578732409
 H    1.345373853227   -5.474763885125    1.307880800984
 H    0.434896837048   -4.387822789087    2.412927240754
 H   -0.226740990000   -4.770522325004    0.786798004207
 C    4.561480851894   -1.540651685645    0.498765157664
 H    4.701947609297   -1.024575372567    1.463571971873
 H    5.253348138157   -2.393550098228    0.437511916008
 H    4.759801571538   -0.838700631624   -0.322409792951
