27

 P   -2.525494557348    2.753999517830   -1.576848017117
 O   -3.489774557348    3.881459517830   -1.913248017117
 O   -1.961564557348    1.752469517830   -2.593628017117
 O   -1.198674557348    3.306059517830   -0.674728017117
 O   -3.067044557348    1.832359517830   -0.259138017117
 C   -0.550074557348    4.434609517830   -1.270258017117
 H   -1.202334557348    5.318769517830   -1.218558017117
 H   -0.291854557348    4.231839517830   -2.323608017117
 H    0.369775442652    4.614539517830   -0.697478017117
 C   -4.418434557348    1.384659517830   -0.409458017117
 H   -4.558904557348    0.868579517830   -1.374268017117
 H   -5.110304557348    2.237559517830   -0.348208017117
 H   -4.616754557348    0.682709517830    0.411711982883
 K   -0.685614557348    0.747649517830   -0.428078017117
 P    2.739209924271   -2.987048722652    1.710287321791
 O    1.412384112988   -3.539106953426    0.808163524993
 O    3.280758897159   -2.065410756163    0.392573188494
 O    3.703482273972   -4.114505711096    2.046680377177
 O    2.175278418210   -1.985521133469    2.727061057426
 C    0.763783725324   -4.667653094120    1.403700561495
 H    1.416039757540   -5.551823550494    1.352002630070
 H    0.505562741361   -4.464882454456    2.457049069839
 H   -0.156075085687   -4.847581990373    0.830919833293
 C    4.632146756208   -1.617711351014    0.542886986749
 H    4.772613513611   -1.101635037936    1.507693800958
 H    5.324014042470   -2.470609763597    0.481633745093
 H    4.830467475851   -0.915760296993   -0.278287963866
