27

 P   -2.633240892839    2.871494604581   -1.644121838140
 O   -3.597520892839    3.998954604581   -1.980521838140
 O   -2.069310892839    1.869964604581   -2.660901838140
 O   -1.306420892839    3.423554604581   -0.742001838140
 O   -3.174790892839    1.949854604581   -0.326411838140
 C   -0.657820892839    4.552104604581   -1.337531838140
 H   -1.310080892839    5.436264604581   -1.285831838140
 H   -0.399600892839    4.349334604581   -2.390881838140
 H    0.262029107161    4.732034604581   -0.764751838140
 C   -4.526180892839    1.502154604581   -0.476731838140
 H   -4.666650892839    0.986074604581   -1.441541838140
 H   -5.218050892839    2.355054604581   -0.415481838140
 H   -4.724500892839    0.800204604581    0.344438161860
 K   -0.793360892839    0.865144604581   -0.495351838140
 P    2.880541732898   -3.141168053390    1.798530979962
 O    1.553715921615   -3.693226284163    0.896407183164
 O    3.422090705786   -2.219530086901    0.480816846665
 O    3.844814082598   -4.268625041834    2.134924035348
 O    2.316610226836   -2.139640464207    2.815304715597
 C    0.905115533950   -4.821772424858    1.491944219666
 H    1.557371566167   -5.705942881232    1.440246288241
 H    0.646894549988   -4.619001785194    2.545292728010
 H   -0.014743277060   -5.001701321110    0.919163491464
 C    4.773478564834   -1.771830681752    0.631130644921
 H    4.913945322237   -1.255754368674    1.595937459130
 H    5.465345851097   -2.624729094335    0.569877403265
 H    4.971799284478   -1.069879627731   -0.190044305695
