27

 P   -2.740987228331    2.988989691333   -1.711395659162
 O   -3.705267228331    4.116449691333   -2.047795659162
 O   -2.177057228331    1.987459691333   -2.728175659162
 O   -1.414167228331    3.541049691333   -0.809275659162
 O   -3.282537228331    2.067349691333   -0.393685659162
 C   -0.765567228331    4.669599691333   -1.404805659162
 H   -1.417827228331    5.553759691333   -1.353105659162
 H   -0.507347228331    4.466829691333   -2.458155659162
 H    0.154282771669    4.849529691333   -0.832025659162
 C   -4.633927228331    1.619649691333   -0.544005659162
 H   -4.774397228331    1.103569691333   -1.508815659162
 H   -5.325797228331    2.472549691333   -0.482755659162
 H   -4.832247228331    0.917699691333    0.277164340838
 K   -0.901107228331    0.982639691333   -0.562625659162
 P    3.021873541524   -3.295287384128    1.886774638133
 O    1.695047730241   -3.847345614901    0.984650841335
 O    3.563422514413   -2.373649417639    0.569060504836
 O    3.986145891225   -4.422744372571    2.223167693519
 O    2.457942035463   -2.293759794945    2.903548373768
 C    1.046447342577   -4.975891755596    1.580187877837
 H    1.698703374793   -5.860062211970    1.528489946412
 H    0.788226358615   -4.773121115932    2.633536386182
 H    0.126588531566   -5.155820651848    1.007407149635
 C    4.914810373461   -1.925950012490    0.719374303092
 H    5.055277130864   -1.409873699412    1.684181117301
 H    5.606677659723   -2.778848425073    0.658121061436
 H    5.113131093104   -1.223998958468   -0.101800647524
