27

 P   -2.821796979949    3.077111006397   -1.761851024928
 O   -3.786076979949    4.204571006397   -2.098251024928
 O   -2.257866979949    2.075581006397   -2.778631024928
 O   -1.494976979949    3.629171006397   -0.859731024928
 O   -3.363346979949    2.155471006397   -0.444141024928
 C   -0.846376979949    4.757721006397   -1.455261024928
 H   -1.498636979949    5.641881006397   -1.403561024928
 H   -0.588156979949    4.554951006397   -2.508611024928
 H    0.073473020051    4.937651006397   -0.882481024928
 C   -4.714736979949    1.707771006397   -0.594461024928
 H   -4.855206979949    1.191691006397   -1.559271024928
 H   -5.406606979949    2.560671006397   -0.533211024928
 H   -4.913056979949    1.005821006397    0.226708975072
 K   -0.981916979949    1.070761006397   -0.613081024928
 P    3.127872397994   -3.410876882181    1.952957381761
 O    1.801046586711   -3.962935112955    1.050833584964
 O    3.669421370883   -2.489238915692    0.635243248465
 O    4.092144747695   -4.538333870625    2.289350437148
 O    2.563940891933   -2.409349292999    2.969731117397
 C    1.152446199047   -5.091481253649    1.646370621465
 H    1.804702231263   -5.975651710023    1.594672690041
 H    0.894225215085   -4.888710613985    2.699719129810
 H    0.232587388036   -5.271410149902    1.073589893263
 C    5.020809229931   -2.041539510543    0.785557046720
 H    5.161275987334   -1.525463197465    1.750363860929
 H    5.712676516193   -2.894437923127    0.724303805064
 H    5.219129949574   -1.339588456522   -0.035617903895
