27

 P   -2.848733563822    3.106484778085   -1.778669480184
 O   -3.813013563822    4.233944778085   -2.115069480184
 O   -2.284803563822    2.104954778085   -2.795449480184
 O   -1.521913563822    3.658544778085   -0.876549480184
 O   -3.390283563822    2.184844778085   -0.460959480184
 C   -0.873313563822    4.787094778085   -1.472079480184
 H   -1.525573563822    5.671254778085   -1.420379480184
 H   -0.615093563822    4.584324778085   -2.525429480184
 H    0.046536436178    4.967024778085   -0.899299480184
 C   -4.741673563822    1.737144778085   -0.611279480184
 H   -4.882143563822    1.221064778085   -1.576089480184
 H   -5.433543563822    2.590044778085   -0.550029480184
 H   -4.939993563822    1.035194778085    0.209890519816
 K   -1.008853563822    1.100134778085   -0.629899480184
 P    3.163205350151   -3.449406714866    1.975018296304
 O    1.836379538868   -4.001464945639    1.072894499507
 O    3.704754323039   -2.527768748377    0.657304163007
 O    4.127477699852   -4.576863703309    2.311411351690
 O    2.599273844090   -2.447879125683    2.991792031939
 C    1.187779151204   -5.130011086334    1.668431536008
 H    1.840035183420   -6.014181542707    1.616733604583
 H    0.929558167241   -4.927240446670    2.721780044353
 H    0.267920340193   -5.309939982586    1.095650807806
 C    5.056142182088   -2.080069343228    0.807617961263
 H    5.196608939490   -1.563993030150    1.772424775472
 H    5.748009468350   -2.932967755811    0.746364719607
 H    5.254462901731   -1.378118289206   -0.013556989352
