27

 P   -2.902606731567    3.165232321461   -1.812306390695
 O   -3.866886731567    4.292692321461   -2.148706390695
 O   -2.338676731567    2.163702321461   -2.829086390695
 O   -1.575786731567    3.717292321461   -0.910186390695
 O   -3.444156731567    2.243592321461   -0.494596390695
 C   -0.927186731567    4.845842321461   -1.505716390695
 H   -1.579446731567    5.730002321461   -1.454016390695
 H   -0.668966731567    4.643072321461   -2.559066390695
 H   -0.007336731567    5.025772321461   -0.932936390695
 C   -4.795546731567    1.795892321461   -0.644916390695
 H   -4.936016731567    1.279812321461   -1.609726390695
 H   -5.487416731567    2.648792321461   -0.583666390695
 H   -4.993866731567    1.093942321461    0.176253609305
 K   -1.062726731567    1.158882321461   -0.663536390695
 P    3.233871254464   -3.526466380234    2.019140125390
 O    1.907045443181   -4.078524611008    1.117016328592
 O    3.775420227353   -2.604828413746    0.701425992093
 O    4.198143604165   -4.653923368678    2.355533180776
 O    2.669939748403   -2.524938791052    3.035913861025
 C    1.258445055517   -5.207070751703    1.712553365094
 H    1.910701087733   -6.091241208076    1.660855433669
 H    1.000224071555   -5.004300112039    2.765901873438
 H    0.338586244506   -5.386999647955    1.139772636892
 C    5.126808086401   -2.157129008597    0.851739790349
 H    5.267274843804   -1.641052695519    1.816546604558
 H    5.818675372663   -3.010027421180    0.790486548693
 H    5.325128806044   -1.455177954575    0.030564839733
