27

 P   -2.929543315440    3.194606093149   -1.829124845950
 O   -3.893823315440    4.322066093149   -2.165524845950
 O   -2.365613315440    2.193076093149   -2.845904845950
 O   -1.602723315440    3.746666093149   -0.927004845950
 O   -3.471093315440    2.272966093149   -0.511414845950
 C   -0.954123315440    4.875216093149   -1.522534845950
 H   -1.606383315440    5.759376093149   -1.470834845950
 H   -0.695903315440    4.672446093149   -2.575884845950
 H   -0.034273315440    5.055146093149   -0.949754845950
 C   -4.822483315440    1.825266093149   -0.661734845950
 H   -4.962953315440    1.309186093149   -1.626544845950
 H   -5.514353315440    2.678166093149   -0.600484845950
 H   -5.020803315440    1.123316093149    0.159435154050
 K   -1.089663315440    1.188256093149   -0.680354845950
 P    3.269204206621   -3.564996212919    2.041201039932
 O    1.942378395338   -4.117054443693    1.139077243135
 O    3.810753179509   -2.643358246430    0.723486906636
 O    4.233476556322   -4.692453201363    2.377594095319
 O    2.705272700559   -2.563468623737    3.057974775568
 C    1.293778007674   -5.245600584387    1.734614279636
 H    1.946034039890   -6.129771040761    1.682916348212
 H    1.035557023711   -5.042829944723    2.787962787981
 H    0.373919196663   -5.425529480640    1.161833551435
 C    5.162141038558   -2.195658841281    0.873800704891
 H    5.302607795960   -1.679582528203    1.838607519100
 H    5.854008324820   -3.048557253864    0.812547463235
 H    5.360461758201   -1.493707787260    0.052625754276
