27

 P   -2.956479899313    3.223979864836   -1.845943301206
 O   -3.920759899313    4.351439864836   -2.182343301206
 O   -2.392549899313    2.222449864836   -2.862723301206
 O   -1.629659899313    3.776039864836   -0.943823301206
 O   -3.498029899313    2.302339864836   -0.528233301206
 C   -0.981059899313    4.904589864836   -1.539353301206
 H   -1.633319899313    5.788749864836   -1.487653301206
 H   -0.722839899313    4.701819864836   -2.592703301206
 H   -0.061209899313    5.084519864836   -0.966573301206
 C   -4.849419899313    1.854639864836   -0.678553301206
 H   -4.989889899313    1.338559864836   -1.643363301206
 H   -5.541289899313    2.707539864836   -0.617303301206
 H   -5.047739899313    1.152689864836    0.142616698794
 K   -1.116599899313    1.217629864836   -0.697173301206
 P    3.304537158778   -3.603526045603    2.063261954475
 O    1.977711347495   -4.155584276377    1.161138157678
 O    3.846086131666   -2.681888079115    0.745547821179
 O    4.268809508478   -4.730983034047    2.399655009862
 O    2.740605652716   -2.601998456421    3.080035690111
 C    1.329110959830   -5.284130417072    1.756675194179
 H    1.981366992046   -6.168300873445    1.704977262755
 H    1.070889975868   -5.081359777408    2.810023702524
 H    0.409252148820   -5.464059313324    1.183894465977
 C    5.197473990714   -2.234188673966    0.895861619434
 H    5.337940748117   -1.718112360887    1.860668433643
 H    5.889341276977   -3.087087086549    0.834608377778
 H    5.395794710358   -1.532237619944    0.074686668819
