27

 P   -2.983416483186    3.253353636524   -1.862761756461
 O   -3.947696483186    4.380813636524   -2.199161756461
 O   -2.419486483186    2.251823636524   -2.879541756461
 O   -1.656596483186    3.805413636524   -0.960641756461
 O   -3.524966483186    2.331713636524   -0.545051756461
 C   -1.007996483186    4.933963636524   -1.556171756461
 H   -1.660256483186    5.818123636524   -1.504471756461
 H   -0.749776483186    4.731193636524   -2.609521756461
 H   -0.088146483186    5.113893636524   -0.983391756461
 C   -4.876356483186    1.884013636524   -0.695371756461
 H   -5.016826483186    1.367933636524   -1.660181756461
 H   -5.568226483186    2.736913636524   -0.634121756461
 H   -5.074676483186    1.182063636524    0.125798243539
 K   -1.143536483186    1.247003636524   -0.713991756461
 P    3.339870110934   -3.642055878288    2.085322869018
 O    2.013044299651   -4.194114109062    1.183199072221
 O    3.881419083822   -2.720417911799    0.767608735721
 O    4.304142460635   -4.769512866732    2.421715924404
 O    2.775938604873   -2.640528289105    3.102096604653
 C    1.364443911987   -5.322660249756    1.778736108722
 H    2.016699944203   -6.206830706130    1.727038177297
 H    1.106222928025   -5.119889610092    2.832084617067
 H    0.444585100976   -5.502589146009    1.205955380520
 C    5.232806942871   -2.272718506650    0.917922533977
 H    5.373273700274   -1.756642193572    1.882729348186
 H    5.924674229133   -3.125616919233    0.856669292321
 H    5.431127662514   -1.570767452629    0.096747583362
