27

 P   -3.010353067059    3.282727408212   -1.879580211717
 O   -3.974633067059    4.410187408212   -2.215980211717
 O   -2.446423067059    2.281197408212   -2.896360211717
 O   -1.683533067059    3.834787408212   -0.977460211717
 O   -3.551903067059    2.361087408212   -0.561870211717
 C   -1.034933067059    4.963337408212   -1.572990211717
 H   -1.687193067059    5.847497408212   -1.521290211717
 H   -0.776713067059    4.760567408212   -2.626340211717
 H   -0.115083067059    5.143267408212   -1.000210211717
 C   -4.903293067059    1.913387408212   -0.712190211717
 H   -5.043763067059    1.397307408212   -1.677000211717
 H   -5.595163067059    2.766287408212   -0.650940211717
 H   -5.101613067059    1.211437408212    0.108979788283
 K   -1.170473067059    1.276377408212   -0.730810211717
 P    3.375203063091   -3.680585710972    2.107383783561
 O    2.048377251808   -4.232643941746    1.205259986763
 O    3.916752035979   -2.758947744483    0.789669650264
 O    4.339475412792   -4.808042699416    2.443776838947
 O    2.811271557029   -2.679058121790    3.124157519196
 C    1.399776864144   -5.361190082441    1.800797023265
 H    2.052032896360   -6.245360538814    1.749099091840
 H    1.141555880181   -5.158419442777    2.854145531609
 H    0.479918053133   -5.541118978693    1.228016295063
 C    5.268139895028   -2.311248339335    0.939983448520
 H    5.408606652430   -1.795172026256    1.904790262729
 H    5.960007181290   -3.164146751918    0.878730206864
 H    5.466460614671   -1.609297285313    0.118808497904
