27

 P   -3.037289650931    3.312101179900   -1.896398666973
 O   -4.001569650931    4.439561179900   -2.232798666973
 O   -2.473359650931    2.310571179900   -2.913178666973
 O   -1.710469650931    3.864161179900   -0.994278666973
 O   -3.578839650931    2.390461179900   -0.578688666973
 C   -1.061869650931    4.992711179900   -1.589808666973
 H   -1.714129650931    5.876871179900   -1.538108666973
 H   -0.803649650931    4.789941179900   -2.643158666973
 H   -0.142019650931    5.172641179900   -1.017028666973
 C   -4.930229650931    1.942761179900   -0.729008666973
 H   -5.070699650931    1.426681179900   -1.693818666973
 H   -5.622099650931    2.795661179900   -0.667758666973
 H   -5.128549650931    1.240811179900    0.092161333027
 K   -1.197409650931    1.305751179900   -0.747628666973
 P    3.410536015248   -3.719115543657    2.129444698104
 O    2.083710203965   -4.271173774431    1.227320901306
 O    3.952084988136   -2.797477577168    0.811730564807
 O    4.374808364948   -4.846572532101    2.465837753490
 O    2.846604509186   -2.717587954474    3.146218433739
 C    1.435109816300   -5.399719915125    1.822857937808
 H    2.087365848516   -6.283890371499    1.771160006383
 H    1.176888832338   -5.196949275461    2.876206446152
 H    0.515251005290   -5.579648811378    1.250077209606
 C    5.303472847184   -2.349778172019    0.962044363063
 H    5.443939604587   -1.833701858941    1.926851177272
 H    5.995340133447   -3.202676584602    0.900791121407
 H    5.501793566827   -1.647827117998    0.140869412447
