27

 P   -3.064226234804    3.341474951588   -1.913217122228
 O   -4.028506234804    4.468934951588   -2.249617122228
 O   -2.500296234804    2.339944951588   -2.929997122228
 O   -1.737406234804    3.893534951588   -1.011097122228
 O   -3.605776234804    2.419834951588   -0.595507122228
 C   -1.088806234804    5.022084951588   -1.606627122228
 H   -1.741066234804    5.906244951588   -1.554927122228
 H   -0.830586234804    4.819314951588   -2.659977122228
 H   -0.168956234804    5.202014951588   -1.033847122228
 C   -4.957166234804    1.972134951588   -0.745827122228
 H   -5.097636234804    1.456054951588   -1.710637122228
 H   -5.649036234804    2.825034951588   -0.684577122228
 H   -5.155486234804    1.270184951588    0.075342877772
 K   -1.224346234804    1.335124951588   -0.764447122228
 P    3.445868967404   -3.757645376341    2.151505612646
 O    2.119043156121   -4.309703607115    1.249381815849
 O    3.987417940292   -2.836007409852    0.833791479350
 O    4.410141317105   -4.885102364785    2.487898668033
 O    2.881937461343   -2.756117787159    3.168279348282
 C    1.470442768457   -5.438249747810    1.844918852350
 H    2.122698800673   -6.322420204183    1.793220920926
 H    1.212221784495   -5.235479108146    2.898267360695
 H    0.550583957446   -5.618178644062    1.272138124149
 C    5.338805799341   -2.388308004704    0.984105277605
 H    5.479272556744   -1.872231691625    1.948912091814
 H    6.030673085603   -3.241206417287    0.922852035949
 H    5.537126518984   -1.686356950682    0.162930326990
