27

 P   -3.171972570295    3.458970038340   -1.980490943250
 O   -4.136252570295    4.586430038340   -2.316890943250
 O   -2.608042570295    2.457440038340   -2.997270943250
 O   -1.845152570295    4.011030038340   -1.078370943250
 O   -3.713522570295    2.537330038340   -0.662780943250
 C   -1.196552570295    5.139580038340   -1.673900943250
 H   -1.848812570295    6.023740038340   -1.622200943250
 H   -0.938332570295    4.936810038340   -2.727250943250
 H   -0.276702570295    5.319510038340   -1.101120943250
 C   -5.064912570295    2.089630038340   -0.813100943250
 H   -5.205382570295    1.573550038340   -1.777910943250
 H   -5.756782570295    2.942530038340   -0.751850943250
 H   -5.263232570295    1.387680038340    0.008069056750
 K   -1.332092570295    1.452620038340   -0.831720943250
 P    3.587200776031   -3.911764707079    2.239749270818
 O    2.260374964748   -4.463822937853    1.337625474020
 O    4.128749748919   -2.990126740590    0.922035137521
 O    4.551473125732   -5.039221695523    2.576142326204
 O    3.023269269969   -2.910237117897    3.256523006453
 C    1.611774577083   -5.592369078547    1.933162510522
 H    2.264030609300   -6.476539534921    1.881464579097
 H    1.353553593121   -5.389598438883    2.986511018866
 H    0.691915766073   -5.772297974800    1.360381782320
 C    5.480137607967   -2.542427335442    1.072348935777
 H    5.620604365370   -2.026351022363    2.037155749986
 H    6.172004894230   -3.395325748025    1.011095694121
 H    5.678458327611   -1.840476281420    0.251173985161
