27

 P   -3.198909154168    3.488343810028   -1.997309398506
 O   -4.163189154168    4.615803810028   -2.333709398506
 O   -2.634979154168    2.486813810028   -3.014089398506
 O   -1.872089154168    4.040403810028   -1.095189398506
 O   -3.740459154168    2.566703810028   -0.679599398506
 C   -1.223489154168    5.168953810028   -1.690719398506
 H   -1.875749154168    6.053113810028   -1.639019398506
 H   -0.965269154168    4.966183810028   -2.744069398506
 H   -0.303639154168    5.348883810028   -1.117939398506
 C   -5.091849154168    2.119003810028   -0.829919398506
 H   -5.232319154168    1.602923810028   -1.794729398506
 H   -5.783719154168    2.971903810028   -0.768669398506
 H   -5.290169154168    1.417053810028   -0.008749398506
 K   -1.359029154168    1.481993810028   -0.848539398506
 P    3.622533728188   -3.950294539764    2.261810185360
 O    2.295707916905   -4.502352770537    1.359686388563
 O    4.164082701076   -3.028656573275    0.944096052064
 O    4.586806077888   -5.077751528207    2.598203240747
 O    3.058602222126   -2.948766950581    3.278583920996
 C    1.647107529240   -5.630898911232    1.955223425064
 H    2.299363561456   -6.515069367606    1.903525493640
 H    1.388886545278   -5.428128271568    3.008571933409
 H    0.727248718230   -5.810827807484    1.382442696863
 C    5.515470560124   -2.580957168126    1.094409850319
 H    5.655937317527   -2.064880855048    2.059216664528
 H    6.207337846386   -3.433855580709    1.033156608663
 H    5.713791279767   -1.879006114104    0.273234899704
