27

 P   -3.225845738041    3.517717581716   -2.014127853761
 O   -4.190125738041    4.645177581716   -2.350527853761
 O   -2.661915738041    2.516187581716   -3.030907853761
 O   -1.899025738041    4.069777581716   -1.112007853761
 O   -3.767395738041    2.596077581716   -0.696417853761
 C   -1.250425738041    5.198327581716   -1.707537853761
 H   -1.902685738041    6.082487581716   -1.655837853761
 H   -0.992205738041    4.995557581716   -2.760887853761
 H   -0.330575738041    5.378257581716   -1.134757853761
 C   -5.118785738041    2.148377581716   -0.846737853761
 H   -5.259255738041    1.632297581716   -1.811547853761
 H   -5.810655738041    3.001277581716   -0.785487853761
 H   -5.317105738041    1.446427581716   -0.025567853761
 K   -1.385965738041    1.511367581716   -0.865357853761
 P    3.657866680344   -3.988824372448    2.283871099903
 O    2.331040869061   -4.540882603222    1.381747303106
 O    4.199415653232   -3.067186405959    0.966156966607
 O    4.622139030045   -5.116281360892    2.620264155289
 O    3.093935174283   -2.987296783266    3.300644835538
 C    1.682440481397   -5.669428743916    1.977284339607
 H    2.334696513613   -6.553599200290    1.925586408183
 H    1.424219497434   -5.466658104252    3.030632847952
 H    0.762581670386   -5.849357640169    1.404503611405
 C    5.550803512281   -2.619487000811    1.116470764862
 H    5.691270269684   -2.103410687732    2.081277579071
 H    6.242670798543   -3.472385413394    1.055217523206
 H    5.749124231924   -1.917535946789    0.295295814247
