27

 P   -3.360528657405    3.664586440155   -2.098220130039
 O   -4.324808657405    4.792046440155   -2.434620130039
 O   -2.796598657405    2.663056440155   -3.115000130039
 O   -2.033708657405    4.216646440155   -1.196100130039
 O   -3.902078657405    2.742946440155   -0.780510130039
 C   -1.385108657405    5.345196440155   -1.791630130039
 H   -2.037368657405    6.229356440155   -1.739930130039
 H   -1.126888657405    5.142426440155   -2.844980130039
 H   -0.465258657405    5.525126440155   -1.218850130039
 C   -5.253468657405    2.295246440155   -0.930830130039
 H   -5.393938657405    1.779166440155   -1.895640130039
 H   -5.945338657405    3.148146440155   -0.869580130039
 H   -5.451788657405    1.593296440155   -0.109660130039
 K   -1.520648657405    1.658236440155   -0.949450130039
 P    3.834531441128   -4.181473535870    2.394175672617
 O    2.507705629845   -4.733531766644    1.492051875820
 O    4.376080414016   -3.259835569382    1.076461539320
 O    4.798803790828   -5.308930524314    2.730568728003
 O    3.270599935066   -3.179945946688    3.410949408252
 C    1.859105242180   -5.862077907339    2.087588912321
 H    2.511361274396   -6.746248363712    2.035890980897
 H    1.600884258218   -5.659307267675    3.140937420666
 H    0.939246431169   -6.042006803591    1.514808184119
 C    5.727468273064   -2.812136164233    1.226775337576
 H    5.867935030467   -2.296059851155    2.191582151785
 H    6.419335559326   -3.665034576816    1.165522095920
 H    5.925788992707   -2.110185110211    0.405600386961
