27

 P   -3.387465241278    3.693960211843   -2.115038585294
 O   -4.351745241278    4.821420211843   -2.451438585294
 O   -2.823535241278    2.692430211843   -3.131818585294
 O   -2.060645241278    4.246020211843   -1.212918585294
 O   -3.929015241278    2.772320211843   -0.797328585294
 C   -1.412045241278    5.374570211843   -1.808448585294
 H   -2.064305241278    6.258730211843   -1.756748585294
 H   -1.153825241278    5.171800211843   -2.861798585294
 H   -0.492195241278    5.554500211843   -1.235668585294
 C   -5.280405241278    2.324620211843   -0.947648585294
 H   -5.420875241278    1.808540211843   -1.912458585294
 H   -5.972275241278    3.177520211843   -0.886398585294
 H   -5.478725241278    1.622670211843   -0.126478585294
 K   -1.547585241278    1.687610211843   -0.966268585294
 P    3.869864393284   -4.220003368555    2.416236587160
 O    2.543038582001   -4.772061599329    1.514112790363
 O    4.411413366172   -3.298365402066    1.098522453863
 O    4.834136742985   -5.347460356999    2.752629642546
 O    3.305932887223   -3.218475779373    3.433010322795
 C    1.894438194337   -5.900607740023    2.109649826864
 H    2.546694226553   -6.784778196397    2.057951895439
 H    1.636217210374   -5.697837100359    3.162998335209
 H    0.974579383326   -6.080536636276    1.536869098662
 C    5.762801225221   -2.850665996917    1.248836252119
 H    5.903267982624   -2.334589683839    2.213643066328
 H    6.454668511483   -3.703564409500    1.187583010463
 H    5.961121944864   -2.148714942896    0.427661301504
