27

 P   -3.414401825150    3.723333983531   -2.131857040550
 O   -4.378681825150    4.850793983531   -2.468257040550
 O   -2.850471825150    2.721803983531   -3.148637040550
 O   -2.087581825150    4.275393983531   -1.229737040550
 O   -3.955951825150    2.801693983531   -0.814147040550
 C   -1.438981825150    5.403943983531   -1.825267040550
 H   -2.091241825150    6.288103983531   -1.773567040550
 H   -1.180761825150    5.201173983531   -2.878617040550
 H   -0.519131825150    5.583873983531   -1.252487040550
 C   -5.307341825150    2.353993983531   -0.964467040550
 H   -5.447811825150    1.837913983531   -1.929277040550
 H   -5.999211825150    3.206893983531   -0.903217040550
 H   -5.505661825150    1.652043983531   -0.143297040550
 K   -1.574521825150    1.716983983531   -0.983087040550
 P    3.905197345441   -4.258533201239    2.438297501703
 O    2.578371534158   -4.810591432013    1.536173704905
 O    4.446746318329   -3.336895234751    1.120583368406
 O    4.869469695141   -5.385990189683    2.774690557089
 O    3.341265839379   -3.257005612057    3.455071237338
 C    1.929771146493   -5.939137572708    2.131710741407
 H    2.582027178710   -6.823308029081    2.080012809982
 H    1.671550162531   -5.736366933044    3.185059249751
 H    1.009912335483   -6.119066468960    1.558930013205
 C    5.798134177377   -2.889195829602    1.270897166662
 H    5.938600934780   -2.373119516523    2.235703980871
 H    6.490001463640   -3.742094242185    1.209643925006
 H    5.996454897021   -2.187244775580    0.449722216046
