27

 P   -3.522148160642    3.840829070283   -2.199130861572
 O   -4.486428160642    4.968289070283   -2.535530861572
 O   -2.958218160642    2.839299070283   -3.215910861572
 O   -2.195328160642    4.392889070283   -1.297010861572
 O   -4.063698160642    2.919189070283   -0.881420861572
 C   -1.546728160642    5.521439070283   -1.892540861572
 H   -2.198988160642    6.405599070283   -1.840840861572
 H   -1.288508160642    5.318669070283   -2.945890861572
 H   -0.626878160642    5.701369070283   -1.319760861572
 C   -5.415088160642    2.471489070283   -1.031740861572
 H   -5.555558160642    1.955409070283   -1.996550861572
 H   -6.106958160642    3.324389070283   -0.970490861572
 H   -5.613408160642    1.769539070283   -0.210570861572
 K   -1.682268160642    1.834479070283   -1.050360861572
 P    4.046529154067   -4.412652531977    2.526541159874
 O    2.719703342784   -4.964710762751    1.624417363077
 O    4.588078126956   -3.491014565488    1.208827026577
 O    5.010801503768   -5.540109520421    2.862934215260
 O    3.482597648006   -3.411124942795    3.543314895509
 C    2.071102955120   -6.093256903446    2.219954399578
 H    2.723358987336   -6.977427359819    2.168256468153
 H    1.812881971158   -5.890486263782    3.273302907923
 H    1.151244144109   -6.273185799698    1.647173671376
 C    5.939465986004   -3.043315160340    1.359140824833
 H    6.079932743407   -2.527238847261    2.323947639042
 H    6.631333272266   -3.896213572923    1.297887583177
 H    6.137786705647   -2.341364106318    0.537965874218
