27

 P   -3.602957912260    3.928950385347   -2.249586227339
 O   -4.567237912260    5.056410385347   -2.585986227339
 O   -3.039027912260    2.927420385347   -3.266366227339
 O   -2.276137912260    4.481010385347   -1.347466227339
 O   -4.144507912260    3.007310385347   -0.931876227339
 C   -1.627537912260    5.609560385347   -1.942996227339
 H   -2.279797912260    6.493720385347   -1.891296227339
 H   -1.369317912260    5.406790385347   -2.996346227339
 H   -0.707687912260    5.789490385347   -1.370216227339
 C   -5.495897912260    2.559610385347   -1.082196227339
 H   -5.636367912260    2.043530385347   -2.047006227339
 H   -6.187767912260    3.412510385347   -1.020946227339
 H   -5.694217912260    1.857660385347   -0.261026227339
 K   -1.763077912260    1.922600385347   -1.100816227339
 P    4.152528010537   -4.528242030031    2.592723903502
 O    2.825702199254   -5.080300260804    1.690600106705
 O    4.694076983426   -3.606604063542    1.275009770206
 O    5.116800360238   -5.655699018475    2.929116958889
 O    3.588596504476   -3.526714440848    3.609497639138
 C    2.177101811590   -6.208846401499    2.286137143206
 H    2.829357843806   -7.093016857873    2.234439211782
 H    1.918880827628   -6.006075761835    3.339485651551
 H    1.257243000579   -6.388775297751    1.713356415005
 C    6.045464842474   -3.158904658393    1.425323568461
 H    6.185931599877   -2.642828345315    2.390130382670
 H    6.737332128736   -4.011803070976    1.364070326805
 H    6.243785562117   -2.456953604372    0.604148617846
