27

 P   -3.629894496133    3.958324157035   -2.266404682594
 O   -4.594174496133    5.085784157035   -2.602804682594
 O   -3.065964496133    2.956794157035   -3.283184682594
 O   -2.303074496133    4.510384157035   -1.364284682594
 O   -4.171444496133    3.036684157035   -0.948694682594
 C   -1.654474496133    5.638934157035   -1.959814682594
 H   -2.306734496133    6.523094157035   -1.908114682594
 H   -1.396254496133    5.436164157035   -3.013164682594
 H   -0.734624496133    5.818864157035   -1.387034682594
 C   -5.522834496133    2.588984157035   -1.099014682594
 H   -5.663304496133    2.072904157035   -2.063824682594
 H   -6.214704496133    3.441884157035   -1.037764682594
 H   -5.721154496133    1.887034157035   -0.277844682594
 K   -1.790014496133    1.951974157035   -1.117634682594
 P    4.187860962694   -4.566771862715    2.614784818045
 O    2.861035151411   -5.118830093489    1.712661021248
 O    4.729409935582   -3.645133896226    1.297070684748
 O    5.152133312395   -5.694228851159    2.951177873431
 O    3.623929456633   -3.565244273533    3.631558553680
 C    2.212434763747   -6.247376234183    2.308198057749
 H    2.864690795963   -7.131546690557    2.256500126325
 H    1.954213779784   -6.044605594519    3.361546566094
 H    1.292575952736   -6.427305130436    1.735417329547
 C    6.080797794631   -3.197434491078    1.447384483004
 H    6.221264552033   -2.681358177999    2.412191297213
 H    6.772665080893   -4.050332903661    1.386131241348
 H    6.279118514274   -2.495483437056    0.626209532389
