27

 P   -3.683767663878    4.017071700410   -2.300041593105
 O   -4.648047663878    5.144531700410   -2.636441593105
 O   -3.119837663878    3.015541700410   -3.316821593105
 O   -2.356947663878    4.569131700410   -1.397921593105
 O   -4.225317663878    3.095431700410   -0.982331593105
 C   -1.708347663878    5.697681700410   -1.993451593105
 H   -2.360607663878    6.581841700410   -1.941751593105
 H   -1.450127663878    5.494911700410   -3.046801593105
 H   -0.788497663878    5.877611700410   -1.420671593105
 C   -5.576707663878    2.647731700410   -1.132651593105
 H   -5.717177663878    2.131651700410   -2.097461593105
 H   -6.268577663878    3.500631700410   -1.071401593105
 H   -5.775027663878    1.945781700410   -0.311481593105
 K   -1.843887663878    2.010721700410   -1.151271593105
 P    4.258526867007   -4.643831528084    2.658906647131
 O    2.931701055724   -5.195889758858    1.756782850333
 O    4.800075839896   -3.722193561595    1.341192513834
 O    5.222799216708   -5.771288516528    2.995299702517
 O    3.694595360946   -3.642303938902    3.675680382766
 C    2.283100668060   -6.324435899552    2.352319886835
 H    2.935356700276   -7.208606355926    2.300621955410
 H    2.024879684098   -6.121665259888    3.405668395179
 H    1.363241857049   -6.504364795805    1.779539158633
 C    6.151463698944   -3.274494156447    1.491506312090
 H    6.291930456347   -2.758417843368    2.456313126299
 H    6.843330985206   -4.127392569030    1.430253070434
 H    6.349784418587   -2.572543102425    0.670331361474
