27

 P   -3.710704247751    4.046445472098   -2.316860048361
 O   -4.674984247751    5.173905472098   -2.653260048361
 O   -3.146774247751    3.044915472098   -3.333640048361
 O   -2.383884247751    4.598505472098   -1.414740048361
 O   -4.252254247751    3.124805472098   -0.999150048361
 C   -1.735284247751    5.727055472098   -2.010270048361
 H   -2.387544247751    6.611215472098   -1.958570048361
 H   -1.477064247751    5.524285472098   -3.063620048361
 H   -0.815434247751    5.906985472098   -1.437490048361
 C   -5.603644247751    2.677105472098   -1.149470048361
 H   -5.744114247751    2.161025472098   -2.114280048361
 H   -6.295514247751    3.530005472098   -1.088220048361
 H   -5.801964247751    1.975155472098   -0.328300048361
 K   -1.870824247751    2.040095472098   -1.168090048361
 P    4.293859819164   -4.682361360769    2.680967561674
 O    2.967034007881   -5.234419591542    1.778843764876
 O    4.835408792052   -3.760723394280    1.363253428377
 O    5.258132168865   -5.809818349212    3.017360617060
 O    3.729928313103   -3.680833771586    3.697741297309
 C    2.318433620217   -6.362965732237    2.374380801378
 H    2.970689652433   -7.247136188611    2.322682869953
 H    2.060212636254   -6.160195092573    3.427729309722
 H    1.398574809206   -6.542894628489    1.801600073176
 C    6.186796651101   -3.313023989131    1.513567226632
 H    6.327263408503   -2.796947676053    2.478374040841
 H    6.878663937363   -4.165922401714    1.452313984976
 H    6.385117370744   -2.611072935109    0.692392276017
