16

 N   -1.176965292049    1.752954418975    0.046969044029
 C    0.193650120360    1.952429096816    0.043337409653
 H    0.515434416698    2.996174027692    0.064756225346
 C   -1.776680561478    0.499839259422    0.022439053373
 O   -2.994454593010    0.332896553355    0.023435134147
 N   -0.851374545867   -0.536938350420   -0.005217483616
 H   -1.245948253730   -1.475452660269   -0.025726357014
 C    0.554355832528   -0.450899638102   -0.013665534407
 O    1.242676504956   -1.474516859904   -0.041773472960
 C    1.084125013593    0.917489230632    0.014940834727
 C    2.576414907199    1.101347556094    0.010110024901
 H    2.837962536279    2.169775432962    0.032764193048
 H    3.016559220789    0.643027336672   -0.888998226545
 H    3.027420113908    0.602861070788    0.882046861814
 H   -1.819271515378    2.537207457149    0.066864462319
NA    0.802898192976   -2.372463282475   -0.058722175103
