16

 N   -1.163397260134    1.780657844513    0.047491945057
 C    0.207218152275    1.980132522354    0.043860310681
 H    0.529002448613    3.023877453230    0.065279126374
 C   -1.763112529563    0.527542684960    0.022961954401
 O   -2.980886561095    0.360599978893    0.023958035175
 N   -0.837806513952   -0.509234924882   -0.004694582588
 H   -1.232380221815   -1.447749234731   -0.025203455986
 C    0.567923864443   -0.423196212564   -0.013142633379
 O    1.256244536871   -1.446813434366   -0.041250571932
 C    1.097693045508    0.945192656170    0.015463735755
 C    2.589982939114    1.129050981632    0.010632925929
 H    2.851530568194    2.197478858500    0.033287094076
 H    3.030127252704    0.670730762210   -0.888475325517
 H    3.040988145823    0.630564496326    0.882569762842
 H   -1.805703483463    2.564910882687    0.067387363347
NA    0.728510562495   -2.524349141450   -0.061589014503
