16

 N   -1.143045212261    1.822212982821    0.048276296600
 C    0.227570200148    2.021687660662    0.044644662224
 H    0.549354496486    3.065432591538    0.066063477917
 C   -1.742760481690    0.569097823268    0.023746305944
 O   -2.960534513222    0.402155117201    0.024742386718
 N   -0.817454466079   -0.467679786574   -0.003910231045
 H   -1.212028173942   -1.406194096423   -0.024419104443
 C    0.588275912316   -0.381641074256   -0.012358281836
 O    1.276596584744   -1.405258296058   -0.040466220389
 C    1.118045093381    0.986747794478    0.016248087298
 C    2.610334986987    1.170606119940    0.011417277472
 H    2.871882616067    2.239033996808    0.034071445619
 H    3.050479300577    0.712285900518   -0.887690973974
 H    3.061340193696    0.672119634634    0.883354114385
 H   -1.785351435590    2.606466020995    0.068171714890
NA    0.616929116773   -2.752177929913   -0.065889273604
