16

 N   -1.136261196303    1.836064695591    0.048537747114
 C    0.234354216106    2.035539373432    0.044906112738
 H    0.556138512444    3.079284304308    0.066324928431
 C   -1.735976465732    0.582949536038    0.024007756458
 O   -2.953750497264    0.416006829971    0.025003837232
 N   -0.810670450121   -0.453828073804   -0.003648780531
 H   -1.205244157984   -1.392342383653   -0.024157653929
 C    0.595059928274   -0.367789361486   -0.012096831322
 O    1.283380600702   -1.391406583288   -0.040204769875
 C    1.124829109339    1.000599507248    0.016509537812
 C    2.617119002945    1.184457832710    0.011678727986
 H    2.878666632025    2.252885709578    0.034332896133
 H    3.057263316535    0.726137613288   -0.887429523460
 H    3.068124209654    0.685971347404    0.883615564899
 H   -1.778567419632    2.620317733765    0.068433165404
NA    0.579735301532   -2.828120859401   -0.067322693304
