16

 N   -1.129477180346    1.849916408360    0.048799197628
 C    0.241138232063    2.049391086201    0.045167563252
 H    0.562922528401    3.093136017077    0.066586378945
 C   -1.729192449775    0.596801248807    0.024269206972
 O   -2.946966481307    0.429858542740    0.025265287746
 N   -0.803886434164   -0.439976361035   -0.003387330017
 H   -1.198460142027   -1.378490670884   -0.023896203415
 C    0.601843944231   -0.353937648717   -0.011835380808
 O    1.290164616659   -1.377554870519   -0.039943319361
 C    1.131613125296    1.014451220017    0.016770988326
 C    2.623903018902    1.198309545479    0.011940178500
 H    2.885450647982    2.266737422347    0.034594346647
 H    3.064047332492    0.739989326057   -0.887168072946
 H    3.074908225611    0.699823060173    0.883877015413
 H   -1.771783403675    2.634169446534    0.068694615918
NA    0.542541486292   -2.904063788889   -0.068756113004
