16

 N   -1.115909148431    1.877619833899    0.049322098657
 C    0.254706263978    2.077094511740    0.045690464281
 H    0.576490560316    3.120839442616    0.067109279974
 C   -1.715624417860    0.624504674346    0.024792108001
 O   -2.933398449392    0.457561968279    0.025788188775
 N   -0.790318402249   -0.412272935496   -0.002864428988
 H   -1.184892110112   -1.350787245345   -0.023373302386
 C    0.615411976146   -0.326234223178   -0.011312479779
 O    1.303732648574   -1.349851444980   -0.039420418332
 C    1.145181157211    1.042154645556    0.017293889355
 C    2.637471050817    1.226012971018    0.012463079529
 H    2.899018679897    2.294440847886    0.035117247676
 H    3.077615364407    0.767692751596   -0.886645171917
 H    3.088476257526    0.727526485712    0.884399916442
 H   -1.758215371760    2.661872872073    0.069217516947
NA    0.468153855811   -3.055949647864   -0.071622952404
