16

 N   -1.095557100558    1.919174972207    0.050106450199
 C    0.275058311851    2.118649650048    0.046474815823
 H    0.596842608189    3.162394580924    0.067893631516
 C   -1.695272369987    0.666059812654    0.025576459543
 O   -2.913046401519    0.499117106587    0.026572540317
 N   -0.769966354376   -0.370717797188   -0.002080077446
 H   -1.164540062239   -1.309232107037   -0.022588950844
 C    0.635764024019   -0.284679084870   -0.010528128237
 O    1.324084696447   -1.308296306672   -0.038636066790
 C    1.165533205084    1.083709783864    0.018078240897
 C    2.657823098690    1.267568109326    0.013247431071
 H    2.919370727770    2.335995986194    0.035901599218
 H    3.097967412280    0.809247889904   -0.885860820375
 H    3.108828305399    0.769081624020    0.885184267984
 H   -1.737863323887    2.703428010381    0.070001868489
NA    0.356572410089   -3.283778436327   -0.075923211504
