16

 N   -1.075205052685    1.960730110514    0.050890801742
 C    0.295410359724    2.160204788355    0.047259167366
 H    0.617194656062    3.203949719231    0.068677983059
 C   -1.674920322114    0.707614950961    0.026360811086
 O   -2.892694353646    0.540672244894    0.027356891860
 N   -0.749614306503   -0.329162658881   -0.001295725903
 H   -1.144188014366   -1.267676968730   -0.021804599301
 C    0.656116071892   -0.243123946563   -0.009743776694
 O    1.344436744320   -1.266741168365   -0.037851715247
 C    1.185885252957    1.125264922171    0.018862592440
 C    2.678175146563    1.309123247633    0.014031782614
 H    2.939722775643    2.377551124501    0.036685950761
 H    3.118319460153    0.850803028211   -0.885076468832
 H    3.129180353272    0.810636762327    0.885968619527
 H   -1.717511276014    2.744983148688    0.070786220032
NA    0.244990964368   -3.511607224791   -0.080223470605
