16

 N   -1.041284972898    2.029988674361    0.052198054313
 C    0.329330439511    2.229463352202    0.048566419937
 H    0.651114735849    3.273208283078    0.069985235630
 C   -1.641000242327    0.776873514808    0.027668063657
 O   -2.858774273859    0.609930808741    0.028664144431
 N   -0.715694226716   -0.259904095034    0.000011526668
 H   -1.110267934579   -1.198418404883   -0.020497346730
 C    0.690036151679   -0.173865382716   -0.008436524123
 O    1.378356824107   -1.197482604518   -0.036544462676
 C    1.219805332744    1.194523486018    0.020169845011
 C    2.712095226350    1.378381811480    0.015339035185
 H    2.973642855430    2.446809688348    0.037993203332
 H    3.152239539940    0.920061592058   -0.883769216261
 H    3.163100433059    0.879895326174    0.887275872098
 H   -1.683591196227    2.814241712535    0.072093472603
NA    0.059021888165   -3.891321872229   -0.087390569105
