16

 N   -1.034500956940    2.043840387130    0.052459504827
 C    0.336114455469    2.243315064971    0.048827870451
 H    0.657898751807    3.287059995847    0.070246686144
 C   -1.634216226369    0.790725227577    0.027929514171
 O   -2.851990257901    0.623782521510    0.028925594945
 N   -0.708910210758   -0.246052382265    0.000272977182
 H   -1.103483918621   -1.184566692114   -0.020235896216
 C    0.696820167637   -0.160013669947   -0.008175073609
 O    1.385140840065   -1.183630891749   -0.036283012162
 C    1.226589348702    1.208375198787    0.020431295525
 C    2.718879242308    1.392233524249    0.015600485699
 H    2.980426871388    2.460661401117    0.038254653846
 H    3.159023555898    0.933913304827   -0.883507765747
 H    3.169884449017    0.893747038943    0.887537322612
 H   -1.676807180269    2.828093425304    0.072354923117
NA    0.021828072924   -3.967264801717   -0.088823988805
