16

 N   -1.007364893110    2.099247238208    0.053505306884
 C    0.363250519299    2.298721916049    0.049873672508
 H    0.685034815637    3.342466846925    0.071292488201
 C   -1.607080162539    0.846132078655    0.028975316228
 O   -2.824854194071    0.679189372588    0.029971397002
 N   -0.681774146928   -0.190645531187    0.001318779239
 H   -1.076347854791   -1.129159841036   -0.019190094159
 C    0.723956231467   -0.104606818869   -0.007129271552
 O    1.412276903895   -1.128224040671   -0.035237210105
 C    1.253725412532    1.263782049865    0.021477097582
 C    2.746015306138    1.447640375327    0.016646287756
 H    3.007562935218    2.516068252195    0.039300455903
 H    3.186159619728    0.989320155905   -0.882461963690
 H    3.197020512847    0.949153890021    0.888583124669
 H   -1.649671116439    2.883500276382    0.073400725174
NA   -0.126947188038   -4.271036519668   -0.094557667606
