16

 N   -0.939524733535    2.237764365901    0.056119812025
 C    0.431090678874    2.437239043742    0.052488177649
 H    0.752874975212    3.480983974618    0.073906993342
 C   -1.539240002964    0.984649206348    0.031589821369
 O   -2.757014034496    0.817706500281    0.032585902143
 N   -0.613933987353   -0.052128403494    0.003933284380
 H   -1.008507695216   -0.990642713343   -0.016575589018
 C    0.791796391042    0.033910308824   -0.004514766411
 O    1.480117063470   -0.989706912978   -0.032622704964
 C    1.321565572107    1.402299177558    0.024091602723
 C    2.813855465713    1.586157503020    0.019260792897
 H    3.075403094793    2.654585379888    0.041914961044
 H    3.253999779303    1.127837283598   -0.879847458549
 H    3.264860672422    1.087671017714    0.891197629810
 H   -1.581830956864    3.022017404075    0.076015230315
NA   -0.498885340443   -5.030465814545   -0.108891864607
