16

 N   -0.932740717577    2.251616078670    0.056381262540
 C    0.437874694832    2.451090756511    0.052749628164
 H    0.759658991170    3.494835687387    0.074168443857
 C   -1.532455987006    0.998500919117    0.031851271884
 O   -2.750230018538    0.831558213050    0.032847352658
 N   -0.607149971395   -0.038276690725    0.004194734895
 H   -1.001723679258   -0.976791000574   -0.016314138503
 C    0.798580407000    0.047762021593   -0.004253315896
 O    1.486901079428   -0.975855200209   -0.032361254449
 C    1.328349588065    1.416150890327    0.024353053238
 C    2.820639481671    1.600009215789    0.019522243412
 H    3.082187110751    2.668437092657    0.042176411559
 H    3.260783795261    1.141688996367   -0.879586008034
 H    3.271644688380    1.101522730483    0.891459080325
 H   -1.575046940906    3.035869116844    0.076276680830
NA   -0.536079155684   -5.106408744033   -0.110325284307
