16

 N   -0.912388669705    2.293171216978    0.057165614082
 C    0.458226742704    2.492645894819    0.053533979706
 H    0.780011039042    3.536390825695    0.074952795399
 C   -1.512103939134    1.040056057425    0.032635623426
 O   -2.729877970666    0.873113351358    0.033631704200
 N   -0.586797923523    0.003278447583    0.004979086437
 H   -0.981371631386   -0.935235862266   -0.015529786961
 C    0.818932454872    0.089317159901   -0.003468964354
 O    1.507253127300   -0.934300061901   -0.031576902907
 C    1.348701635937    1.457706028635    0.025137404780
 C    2.840991529543    1.641564354097    0.020306594954
 H    3.102539158623    2.709992230965    0.042960763101
 H    3.281135843133    1.183244134675   -0.878801656492
 H    3.291996736252    1.143077868791    0.892243431867
 H   -1.554694893034    3.077424255152    0.077061032372
NA   -0.647660601405   -5.334237532496   -0.114625543407
