16

 N   -0.885252605874    2.348578068055    0.058211416139
 C    0.485362806535    2.548052745896    0.054579781763
 H    0.807147102873    3.591797676772    0.075998597456
 C   -1.484967875303    1.095462908502    0.033681425483
 O   -2.702741906835    0.928520202435    0.034677506257
 N   -0.559661859692    0.058685298660    0.006024888494
 H   -0.954235567555   -0.879829011189   -0.014483984904
 C    0.846068518703    0.144724010978   -0.002423162297
 O    1.534389191131   -0.878893210824   -0.030531100850
 C    1.375837699768    1.513112879712    0.026183206837
 C    2.868127593374    1.696971205174    0.021352397011
 H    3.129675222454    2.765399082042    0.044006565158
 H    3.308271906964    1.238650985752   -0.877755854435
 H    3.319132800083    1.198484719868    0.893289233924
 H   -1.527558829203    3.132831106229    0.078106834429
NA   -0.796435862368   -5.638009250447   -0.120359222208
