16

 N   -0.878468589917    2.362429780825    0.058472866653
 C    0.492146822492    2.561904458666    0.054841232277
 H    0.813931118830    3.605649389542    0.076260047970
 C   -1.478183859346    1.109314621272    0.033942875997
 O   -2.695957890878    0.942371915205    0.034938956771
 N   -0.552877843735    0.072537011430    0.006286339008
 H   -0.947451551598   -0.865977298419   -0.014222534390
 C    0.852852534660    0.158575723748   -0.002161711783
 O    1.541173207088   -0.865041498054   -0.030269650336
 C    1.382621715725    1.526964592482    0.026444657351
 C    2.874911609331    1.710822917944    0.021613847525
 H    3.136459238411    2.779250794812    0.044268015672
 H    3.315055922921    1.252502698522   -0.877494403921
 H    3.325916816040    1.212336432638    0.893550684438
 H   -1.520774813246    3.146682818999    0.078368284943
NA   -0.833629677608   -5.713952179935   -0.121792641908
