16

 N   -0.871684573959    2.376281493594    0.058734317167
 C    0.498930838450    2.575756171435    0.055102682791
 H    0.820715134788    3.619501102311    0.076521498484
 C   -1.471399843388    1.123166334041    0.034204326511
 O   -2.689173874920    0.956223627974    0.035200407285
 N   -0.546093827777    0.086388724199    0.006547789522
 H   -0.940667535640   -0.852125585650   -0.013961083876
 C    0.859636550618    0.172427436517   -0.001900261269
 O    1.547957223046   -0.851189785285   -0.030008199822
 C    1.389405731683    1.540816305251    0.026706107865
 C    2.881695625289    1.724674630713    0.021875298039
 H    3.143243254369    2.793102507581    0.044529466186
 H    3.321839938879    1.266354411291   -0.877232953407
 H    3.332700831998    1.226188145407    0.893812134952
 H   -1.513990797288    3.160534531768    0.078629735457
NA   -0.870823492849   -5.789895109422   -0.123226061608
