16

 N   -0.844548510129    2.431688344671    0.059780119224
 C    0.526066902280    2.631163022512    0.056148484848
 H    0.847851198618    3.674907953388    0.077567300541
 C   -1.444263779558    1.178573185118    0.035250128568
 O   -2.662037811090    1.011630479051    0.036246209342
 N   -0.518957763947    0.141795575276    0.007593591579
 H   -0.913531471810   -0.796718734573   -0.012915281819
 C    0.886772614448    0.227834287594   -0.000854459212
 O    1.575093286876   -0.795782934208   -0.028962397765
 C    1.416541795513    1.596223156328    0.027751909922
 C    2.908831689119    1.780081481790    0.022921100096
 H    3.170379318199    2.848509358658    0.045575268243
 H    3.348976002709    1.321761262368   -0.876187151350
 H    3.359836895828    1.281594996484    0.894857937009
 H   -1.486854733458    3.215941382845    0.079675537514
NA   -1.019598753811   -6.093666827373   -0.128959740408
