16

 N   -0.830980478214    2.459391770210    0.060303020253
 C    0.539634934195    2.658866448051    0.056671385877
 H    0.861419230533    3.702611378927    0.078090201570
 C   -1.430695747643    1.206276610657    0.035773029597
 O   -2.648469779175    1.039333904590    0.036769110371
 N   -0.505389732032    0.169499000815    0.008116492608
 H   -0.899963439895   -0.769015309034   -0.012392380790
 C    0.900340646363    0.255537713133   -0.000331558183
 O    1.588661318791   -0.768079508669   -0.028439496736
 C    1.430109827428    1.623926581867    0.028274810951
 C    2.922399721034    1.807784907329    0.023444001125
 H    3.183947350114    2.876212784197    0.046098169272
 H    3.362544034624    1.349464687907   -0.875664250321
 H    3.373404927743    1.309298422023    0.895380838038
 H   -1.473286701543    3.243644808384    0.080198438543
NA   -1.093986384292   -6.245552686349   -0.131826579808
