16

 N   -0.817412446299    2.487095195749    0.060825921281
 C    0.553202966110    2.686569873590    0.057194286905
 H    0.874987262448    3.730314804466    0.078613102598
 C   -1.417127715728    1.233980036196    0.036295930625
 O   -2.634901747260    1.067037330129    0.037292011399
 N   -0.491821700117    0.197202426354    0.008639393636
 H   -0.886395407980   -0.741311883495   -0.011869479762
 C    0.913908678278    0.283241138672    0.000191342845
 O    1.602229350706   -0.740376083130   -0.027916595708
 C    1.443677859343    1.651630007406    0.028797711979
 C    2.935967752949    1.835488332868    0.023966902153
 H    3.197515382029    2.903916209736    0.046621070300
 H    3.376112066539    1.377168113446   -0.875141349293
 H    3.386972959658    1.337001847562    0.895903739066
 H   -1.459718669628    3.271348233923    0.080721339571
NA   -1.168374014773   -6.397438545324   -0.134693419209
