16

 N   -0.797060398426    2.528650334056    0.061610272824
 C    0.573555013983    2.728125011897    0.057978638448
 H    0.895339310321    3.771869942773    0.079397454141
 C   -1.396775667855    1.275535174503    0.037080282168
 O   -2.614549699387    1.108592468436    0.038076362942
 N   -0.471469652244    0.238757564661    0.009423745179
 H   -0.866043360107   -0.699756745188   -0.011085128219
 C    0.934260726151    0.324796276979    0.000975694388
 O    1.622581398579   -0.698820944823   -0.027132244165
 C    1.464029907216    1.693185145713    0.029582063522
 C    2.956319800822    1.877043471175    0.024751253696
 H    3.217867429902    2.945471348043    0.047405421843
 H    3.396464114412    1.418723251753   -0.874356997750
 H    3.407325007531    1.378556985869    0.896688090609
 H   -1.439366621755    3.312903372230    0.081505691114
NA   -1.279955460495   -6.625267333787   -0.138993678309
