16

 N   -0.783492366511    2.556353759595    0.062133173852
 C    0.587123045898    2.755828437436    0.058501539476
 H    0.908907342236    3.799573368312    0.079920355169
 C   -1.383207635940    1.303238600042    0.037603183196
 O   -2.600981667472    1.136295893975    0.038599263970
 N   -0.457901620329    0.266460990200    0.009946646207
 H   -0.852475328192   -0.672053319649   -0.010562227191
 C    0.947828758066    0.352499702518    0.001498595416
 O    1.636149430494   -0.671117519284   -0.026609343137
 C    1.477597939131    1.720888571252    0.030104964550
 C    2.969887832737    1.904746896714    0.025274154724
 H    3.231435461817    2.973174773582    0.047928322871
 H    3.410032146327    1.446426677292   -0.873834096722
 H    3.420893039446    1.406260411408    0.897210991637
 H   -1.425798589840    3.340606797769    0.082028592142
NA   -1.354343090976   -6.777153192763   -0.141860517709
