16

 N   -0.776708350554    2.570205472364    0.062394624366
 C    0.593907061855    2.769680150205    0.058762989990
 H    0.915691358193    3.813425081081    0.080181805683
 C   -1.376423619983    1.317090312811    0.037864633710
 O   -2.594197651515    1.150147606744    0.038860714484
 N   -0.451117604372    0.280312702969    0.010208096721
 H   -0.845691312235   -0.658201606880   -0.010300776677
 C    0.954612774023    0.366351415287    0.001760045930
 O    1.642933446451   -0.657265806515   -0.026347892623
 C    1.484381955088    1.734740284021    0.030366415064
 C    2.976671848694    1.918598609483    0.025535605238
 H    3.238219477774    2.987026486351    0.048189773385
 H    3.416816162284    1.460278390061   -0.873572646208
 H    3.427677055403    1.420112124177    0.897472442151
 H   -1.419014573883    3.354458510538    0.082290042656
NA   -1.391536906216   -6.853096122250   -0.143293937409
