16

 N   -0.729220238851    2.667167461750    0.064224777965
 C    0.641395173558    2.866642139591    0.060593143589
 H    0.963179469896    3.910387070467    0.082011959282
 C   -1.328935508280    1.414052302197    0.039694787309
 O   -2.546709539812    1.247109596130    0.040690868083
 N   -0.403629492669    0.377274692355    0.012038250320
 H   -0.798203200532   -0.561239617494   -0.008470623078
 C    1.002100885726    0.463313404673    0.003590199529
 O    1.690421558154   -0.560303817129   -0.024517739024
 C    1.531870066791    1.831702273407    0.032196568663
 C    3.024159960397    2.015560598869    0.027365758837
 H    3.285707589477    3.083988475737    0.050019926984
 H    3.464304273987    1.557240379447   -0.871742492609
 H    3.475165167106    1.517074113563    0.899302595750
 H   -1.371526462180    3.451420499924    0.084120196255
NA   -1.651893612900   -7.384696628664   -0.153327875310
