16

 N   -0.722436222893    2.681019174519    0.064486228480
 C    0.648179189516    2.880493852360    0.060854594104
 H    0.969963485854    3.924238783236    0.082273409797
 C   -1.322151492322    1.427904014966    0.039956237824
 O   -2.539925523854    1.260961308899    0.040952318598
 N   -0.396845476711    0.391126405124    0.012299700835
 H   -0.791419184574   -0.547387904725   -0.008209172563
 C    1.008884901684    0.477165117442    0.003851650044
 O    1.697205574112   -0.546452104360   -0.024256288509
 C    1.538654082749    1.845553986176    0.032458019178
 C    3.030943976355    2.029412311638    0.027627209352
 H    3.292491605435    3.097840188506    0.050281377499
 H    3.471088289945    1.571092092216   -0.871481042094
 H    3.481949183064    1.530925826332    0.899564046265
 H   -1.364742446222    3.465272212693    0.084381646770
NA   -1.689087428141   -7.460639558152   -0.154761295010
