16

 N   -0.695300159063    2.736426025596    0.065532030536
 C    0.675315253346    2.935900703437    0.061900396160
 H    0.997099549684    3.979645634313    0.083319211853
 C   -1.295015428492    1.483310866043    0.041002039880
 O   -2.512789460024    1.316368159976    0.041998120654
 N   -0.369709412881    0.446533256201    0.013345502891
 H   -0.764283120744   -0.491981053648   -0.007163370507
 C    1.036020965514    0.532571968519    0.004897452100
 O    1.724341637942   -0.491045253283   -0.023210486453
 C    1.565790146579    1.900960837253    0.033503821234
 C    3.058080040185    2.084819162715    0.028673011408
 H    3.319627669265    3.153247039583    0.051327179555
 H    3.498224353775    1.626498943293   -0.870435240038
 H    3.509085246894    1.586332677409    0.900609848321
 H   -1.337606382392    3.520679063770    0.085427448826
NA   -1.837862689103   -7.764411276103   -0.160494973811
