16

 N   -0.688516143106    2.750277738366    0.065793481051
 C    0.682099269303    2.949752416207    0.062161846675
 H    1.003883565641    3.993497347083    0.083580662368
 C   -1.288231412535    1.497162578813    0.041263490395
 O   -2.506005444067    1.330219872746    0.042259571169
 N   -0.362925396924    0.460384968971    0.013606953406
 H   -0.757499104787   -0.478129340878   -0.006901919992
 C    1.042804981471    0.546423681289    0.005158902615
 O    1.731125653899   -0.477193540513   -0.022949035938
 C    1.572574162536    1.914812550023    0.033765271749
 C    3.064864056142    2.098670875485    0.028934461923
 H    3.326411685222    3.167098752353    0.051588630070
 H    3.505008369732    1.640350656063   -0.870173789523
 H    3.515869262851    1.600184390179    0.900871298836
 H   -1.330822366435    3.534530776540    0.085688899341
NA   -1.875056504343   -7.840354205591   -0.161928393511
