16

 N   -0.674948111191    2.777981163904    0.066316382079
 C    0.695667301218    2.977455841745    0.062684747703
 H    1.017451597556    4.021200772621    0.084103563396
 C   -1.274663380620    1.524866004351    0.041786391423
 O   -2.492437412152    1.357923298284    0.042782472197
 N   -0.349357365009    0.488088394509    0.014129854434
 H   -0.743931072872   -0.450425915340   -0.006379018964
 C    1.056373013386    0.574127106827    0.005681803643
 O    1.744693685814   -0.449490114975   -0.022426134910
 C    1.586142194451    1.942515975561    0.034288172777
 C    3.078432088057    2.126374301023    0.029457362951
 H    3.339979717137    3.194802177891    0.052111531098
 H    3.518576401647    1.668054081601   -0.869650888495
 H    3.529437294766    1.627887815717    0.901394199864
 H   -1.317254334520    3.562234202078    0.086211800369
NA   -1.949444134824   -7.992240064566   -0.164795232911
