16

 N   -0.620675983530    2.888794866059    0.068407986192
 C    0.749939428879    3.088269543900    0.064776351816
 H    1.071723725217    4.132014474776    0.086195167509
 C   -1.220391252959    1.635679706506    0.043877995536
 O   -2.438165284491    1.468737000439    0.044874076310
 N   -0.295085237348    0.598902096664    0.016221458547
 H   -0.689658945211   -0.339612213185   -0.004287414851
 C    1.110645141047    0.684940808982    0.007773407756
 O    1.798965813475   -0.338676412820   -0.020334530797
 C    1.640414322112    2.053329677716    0.036379776890
 C    3.132704215718    2.237188003178    0.031548967064
 H    3.394251844798    3.305615880046    0.054203135211
 H    3.572848529308    1.778867783756   -0.867559284382
 H    3.583709422427    1.738701517872    0.903485803977
 H   -1.262982206859    3.673047904233    0.088303404482
NA   -2.246994656749   -8.599783500468   -0.176262590512
