16

 N   -0.579971887785    2.971905142675    0.069976689278
 C    0.790643524624    3.171379820516    0.066345054902
 H    1.112427820962    4.215124751392    0.087763870595
 C   -1.179687157214    1.718789983122    0.045446698622
 O   -2.397461188746    1.551847277055    0.046442779396
 N   -0.254381141603    0.682012373280    0.017790161633
 H   -0.648954849466   -0.256501936569   -0.002718711765
 C    1.151349236792    0.768051085598    0.009342110842
 O    1.839669909220   -0.255566136204   -0.018765827711
 C    1.681118417857    2.136439954332    0.037948479976
 C    3.173408311463    2.320298279794    0.033117670150
 H    3.434955940543    3.388726156662    0.055771838297
 H    3.613552625053    1.861978060372   -0.865990581296
 H    3.624413518172    1.821811794488    0.905054507063
 H   -1.222278111114    3.756158180849    0.089872107568
NA   -2.470157548192   -9.055441077394   -0.184863108712
