16

 N   -0.573187871828    2.985756855444    0.070238139792
 C    0.797427540581    3.185231533285    0.066606505416
 H    1.119211836919    4.228976464161    0.088025321109
 C   -1.172903141257    1.732641695891    0.045708149136
 O   -2.390677172789    1.565698989824    0.046704229910
 N   -0.247597125646    0.695864086049    0.018051612147
 H   -0.642170833509   -0.242650223800   -0.002457261251
 C    1.158133252749    0.781902798367    0.009603561356
 O    1.846453925177   -0.241714423435   -0.018504377197
 C    1.687902433814    2.150291667101    0.038209930490
 C    3.180192327420    2.334149992563    0.033379120664
 H    3.441739956500    3.402577869431    0.056033288811
 H    3.620336641010    1.875829773141   -0.865729130782
 H    3.631197534129    1.835663507257    0.905315957577
 H   -1.215494095157    3.770009893618    0.090133558082
NA   -2.507351363432   -9.131384006882   -0.186296528412
