7

 H   -2.556204257522    2.097902596538    0.000000000000
 H   -1.016645257522    2.188881596538    0.902247000000
 H   -1.016645257522    2.188881596538   -0.902247000000
 C   -1.500456257522    1.792361596538    0.000000000000
 S   -1.500456257522   -0.040364403462    0.000000000000
 H   -0.159873257522   -0.196755403462    0.000000000000
RB    0.833390764183   -0.312628537478    0.000000000000
