7

 H   -2.619658136752    2.105305059218    0.000000000000
 H   -1.080099136752    2.196284059218    0.902247000000
 H   -1.080099136752    2.196284059218   -0.902247000000
 C   -1.563910136752    1.799764059218    0.000000000000
 S   -1.563910136752   -0.032961940782    0.000000000000
 H   -0.223327136752   -0.189352940782    0.000000000000
RB    0.869263287124   -0.316813388199    0.000000000000
