7

 H   -2.683112015981    2.112707521898    0.000000000000
 H   -1.143553015981    2.203686521898    0.902247000000
 H   -1.143553015981    2.203686521898   -0.902247000000
 C   -1.627364015981    1.807166521898    0.000000000000
 S   -1.627364015981   -0.025559478102    0.000000000000
 H   -0.286781015981   -0.181950478102    0.000000000000
RB    0.905135810064   -0.320998238921    0.000000000000
