7

 H   -2.746565895211    2.120109984578    0.000000000000
 H   -1.207006895211    2.211088984578    0.902247000000
 H   -1.207006895211    2.211088984578   -0.902247000000
 C   -1.690817895211    1.814568984578    0.000000000000
 S   -1.690817895211   -0.018157015422    0.000000000000
 H   -0.350234895211   -0.174548015422    0.000000000000
RB    0.941008333005   -0.325183089643    0.000000000000
