7

 H   -2.810019774441    2.127512447257    0.000000000000
 H   -1.270460774441    2.218491447257    0.902247000000
 H   -1.270460774441    2.218491447257   -0.902247000000
 C   -1.754271774441    1.821971447257    0.000000000000
 S   -1.754271774441   -0.010754552743    0.000000000000
 H   -0.413688774441   -0.167145552743    0.000000000000
RB    0.976880855946   -0.329367940365    0.000000000000
