7

 H   -3.000381412131    2.149719835297    0.000000000000
 H   -1.460822412131    2.240698835297    0.902247000000
 H   -1.460822412131    2.240698835297   -0.902247000000
 C   -1.944633412131    1.844178835297    0.000000000000
 S   -1.944633412131    0.011452835297    0.000000000000
 H   -0.604050412131   -0.144938164703    0.000000000000
RB    1.084498424768   -0.341922492530    0.000000000000
