7

 H   -3.063835291360    2.157122297976    0.000000000000
 H   -1.524276291360    2.248101297976    0.902247000000
 H   -1.524276291360    2.248101297976   -0.902247000000
 C   -2.008087291360    1.851581297976    0.000000000000
 S   -2.008087291360    0.018855297976    0.000000000000
 H   -0.667504291360   -0.137535702024    0.000000000000
RB    1.120370947708   -0.346107343252    0.000000000000
