7

 H   -3.127289170590    2.164524760656    0.000000000000
 H   -1.587730170590    2.255503760656    0.902247000000
 H   -1.587730170590    2.255503760656   -0.902247000000
 C   -2.071541170590    1.858983760656    0.000000000000
 S   -2.071541170590    0.026257760656    0.000000000000
 H   -0.730958170590   -0.130133239344    0.000000000000
RB    1.156243470649   -0.350292193974    0.000000000000
