7

 H   -8.267053388206    2.764124237717    0.000000000000
 H   -6.727494388206    2.855103237717    0.902247000000
 H   -6.727494388206    2.855103237717   -0.902247000000
 C   -7.211305388206    2.458583237717    0.000000000000
 S   -7.211305388206    0.625857237717    0.000000000000
 H   -5.870722388206    0.469466237717    0.000000000000
RB    4.061917828843   -0.689265102442    0.000000000000
