7

 H   -3.190743049820    2.171927223336    0.000000000000
 H   -1.651184049820    2.262906223336    0.902247000000
 H   -1.651184049820    2.262906223336   -0.902247000000
 C   -2.134995049820    1.866386223336    0.000000000000
 S   -2.134995049820    0.033660223336    0.000000000000
 H   -0.794412049820   -0.122730776664    0.000000000000
RB    1.192115993590   -0.354477044696    0.000000000000
