7

 H   -3.444558566739    2.201537074055    0.000000000000
 H   -1.904999566739    2.292516074055    0.902247000000
 H   -1.904999566739    2.292516074055   -0.902247000000
 C   -2.388810566739    1.895996074055    0.000000000000
 S   -2.388810566739    0.063270074055    0.000000000000
 H   -1.048227566739   -0.093120925945    0.000000000000
RB    1.335606085352   -0.371216447583    0.000000000000
