7

 H   -3.571466325199    2.216341999415    0.000000000000
 H   -2.031907325199    2.307320999415    0.902247000000
 H   -2.031907325199    2.307320999415   -0.902247000000
 C   -2.515718325199    1.910800999415    0.000000000000
 S   -2.515718325199    0.078074999415    0.000000000000
 H   -1.175135325199   -0.078316000585    0.000000000000
RB    1.407351131234   -0.379586149027    0.000000000000
