7

 H   -3.634920204429    2.223744462094    0.000000000000
 H   -2.095361204429    2.314723462094    0.902247000000
 H   -2.095361204429    2.314723462094   -0.902247000000
 C   -2.579172204429    1.918203462094    0.000000000000
 S   -2.579172204429    0.085477462094    0.000000000000
 H   -1.238589204429   -0.070913537906    0.000000000000
RB    1.443223654174   -0.383770999749    0.000000000000
