7

 H   -3.761827962889    2.238549387454    0.000000000000
 H   -2.222268962889    2.329528387454    0.902247000000
 H   -2.222268962889    2.329528387454   -0.902247000000
 C   -2.706079962889    1.933008387454    0.000000000000
 S   -2.706079962889    0.100282387454    0.000000000000
 H   -1.365496962889   -0.056108612546    0.000000000000
RB    1.514968700056   -0.392140701192    0.000000000000
