7

 H   -3.825281842118    2.245951850134    0.000000000000
 H   -2.285722842118    2.336930850134    0.902247000000
 H   -2.285722842118    2.336930850134   -0.902247000000
 C   -2.769533842118    1.940410850134    0.000000000000
 S   -2.769533842118    0.107684850134    0.000000000000
 H   -1.428950842118   -0.048706149866    0.000000000000
RB    1.550841222996   -0.396325551914    0.000000000000
