7

 H   -3.952189600578    2.260756775493    0.000000000000
 H   -2.412630600578    2.351735775493    0.902247000000
 H   -2.412630600578    2.351735775493   -0.902247000000
 C   -2.896441600578    1.955215775493    0.000000000000
 S   -2.896441600578    0.122489775493    0.000000000000
 H   -1.555858600578   -0.033901224507    0.000000000000
RB    1.622586268878   -0.404695253358    0.000000000000
