7

 H   -4.142551238267    2.282964163533    0.000000000000
 H   -2.602992238267    2.373943163533    0.902247000000
 H   -2.602992238267    2.373943163533   -0.902247000000
 C   -3.086803238267    1.977423163533    0.000000000000
 S   -3.086803238267    0.144697163533    0.000000000000
 H   -1.746220238267   -0.011693836467    0.000000000000
RB    1.730203837700   -0.417249805523    0.000000000000
