7

 H   -4.459820634417    2.319976476931    0.000000000000
 H   -2.920261634417    2.410955476931    0.902247000000
 H   -2.920261634417    2.410955476931   -0.902247000000
 C   -3.404072634417    2.014435476931    0.000000000000
 S   -3.404072634417    0.181709476931    0.000000000000
 H   -2.063489634417    0.025318476931    0.000000000000
RB    1.909566452403   -0.438174059132    0.000000000000
