7

 H   -4.523274513646    2.327378939611    0.000000000000
 H   -2.983715513646    2.418357939611    0.902247000000
 H   -2.983715513646    2.418357939611   -0.902247000000
 C   -3.467526513646    2.021837939611    0.000000000000
 S   -3.467526513646    0.189111939611    0.000000000000
 H   -2.126943513646    0.032720939611    0.000000000000
RB    1.945438975344   -0.442358909854    0.000000000000
