7

 H   -4.586728392876    2.334781402291    0.000000000000
 H   -3.047169392876    2.425760402291    0.902247000000
 H   -3.047169392876    2.425760402291   -0.902247000000
 C   -3.530980392876    2.029240402291    0.000000000000
 S   -3.530980392876    0.196514402291    0.000000000000
 H   -2.190397392876    0.040123402291    0.000000000000
RB    1.981311498284   -0.446543760576    0.000000000000
