7

 H   -4.650182272106    2.342183864971    0.000000000000
 H   -3.110623272106    2.433162864971    0.902247000000
 H   -3.110623272106    2.433162864971   -0.902247000000
 C   -3.594434272106    2.036642864971    0.000000000000
 S   -3.594434272106    0.203916864971    0.000000000000
 H   -2.253851272106    0.047525864971    0.000000000000
RB    2.017184021225   -0.450728611298    0.000000000000
