7

 H   -4.777090030566    2.356988790330    0.000000000000
 H   -3.237531030566    2.447967790330    0.902247000000
 H   -3.237531030566    2.447967790330   -0.902247000000
 C   -3.721342030566    2.051447790330    0.000000000000
 S   -3.721342030566    0.218721790330    0.000000000000
 H   -2.380759030566    0.062330790330    0.000000000000
RB    2.088929067106   -0.459098312741    0.000000000000
