7

 H   -5.030905547485    2.386598641049    0.000000000000
 H   -3.491346547485    2.477577641049    0.902247000000
 H   -3.491346547485    2.477577641049   -0.902247000000
 C   -3.975157547485    2.081057641049    0.000000000000
 S   -3.975157547485    0.248331641049    0.000000000000
 H   -2.634574547485    0.091940641049    0.000000000000
RB    2.232419158869   -0.475837715629    0.000000000000
