7

 H   -5.157813305945    2.401403566409    0.000000000000
 H   -3.618254305945    2.492382566409    0.902247000000
 H   -3.618254305945    2.492382566409   -0.902247000000
 C   -4.102065305945    2.095862566409    0.000000000000
 S   -4.102065305945    0.263136566409    0.000000000000
 H   -2.761482305945    0.106745566409    0.000000000000
RB    2.304164204750   -0.484207417072    0.000000000000
