7

 H   -5.411628822864    2.431013417128    0.000000000000
 H   -3.872069822864    2.521992417128    0.902247000000
 H   -3.872069822864    2.521992417128   -0.902247000000
 C   -4.355880822864    2.125472417128    0.000000000000
 S   -4.355880822864    0.292746417128    0.000000000000
 H   -3.015297822864    0.136355417128    0.000000000000
RB    2.447654296513   -0.500946819960    0.000000000000
