7

 H   -5.475082702094    2.438415879808    0.000000000000
 H   -3.935523702094    2.529394879808    0.902247000000
 H   -3.935523702094    2.529394879808   -0.902247000000
 C   -4.419334702094    2.132874879808    0.000000000000
 S   -4.419334702094    0.300148879808    0.000000000000
 H   -3.078751702094    0.143757879808    0.000000000000
RB    2.483526819453   -0.505131670681    0.000000000000
