7

 H   -5.792352098243    2.475428193206    0.000000000000
 H   -4.252793098243    2.566407193206    0.902247000000
 H   -4.252793098243    2.566407193206   -0.902247000000
 C   -4.736604098243    2.169887193206    0.000000000000
 S   -4.736604098243    0.337161193206    0.000000000000
 H   -3.396021098243    0.180770193206    0.000000000000
RB    2.662889434157   -0.526055924291    0.000000000000
