7

 H   -5.855805977473    2.482830655886    0.000000000000
 H   -4.316246977473    2.573809655886    0.902247000000
 H   -4.316246977473    2.573809655886   -0.902247000000
 C   -4.800057977473    2.177289655886    0.000000000000
 S   -4.800057977473    0.344563655886    0.000000000000
 H   -3.459474977473    0.188172655886    0.000000000000
RB    2.698761957097   -0.530240775012    0.000000000000
