7

 H   -5.982713735932    2.497635581246    0.000000000000
 H   -4.443154735932    2.588614581246    0.902247000000
 H   -4.443154735932    2.588614581246   -0.902247000000
 C   -4.926965735932    2.192094581246    0.000000000000
 S   -4.926965735932    0.359368581246    0.000000000000
 H   -3.586382735932    0.202977581246    0.000000000000
RB    2.770507002979   -0.538610476456    0.000000000000
