7

 H   -6.046167615162    2.505038043926    0.000000000000
 H   -4.506608615162    2.596017043926    0.902247000000
 H   -4.506608615162    2.596017043926   -0.902247000000
 C   -4.990419615162    2.199497043926    0.000000000000
 S   -4.990419615162    0.366771043926    0.000000000000
 H   -3.649836615162    0.210380043926    0.000000000000
RB    2.806379525919   -0.542795327178    0.000000000000
