7

 H   -6.109621494392    2.512440506605    0.000000000000
 H   -4.570062494392    2.603419506605    0.902247000000
 H   -4.570062494392    2.603419506605   -0.902247000000
 C   -5.053873494392    2.206899506605    0.000000000000
 S   -5.053873494392    0.374173506605    0.000000000000
 H   -3.713290494392    0.217782506605    0.000000000000
RB    2.842252048860   -0.546980177900    0.000000000000
