7

 H   -6.617252528231    2.571660208043    0.000000000000
 H   -5.077693528231    2.662639208043    0.902247000000
 H   -5.077693528231    2.662639208043   -0.902247000000
 C   -5.561504528231    2.266119208043    0.000000000000
 S   -5.561504528231    0.433393208043    0.000000000000
 H   -4.220921528231    0.277002208043    0.000000000000
RB    3.129232232385   -0.580458983674    0.000000000000
