7

 H   -6.744160286690    2.586465133403    0.000000000000
 H   -5.204601286690    2.677444133403    0.902247000000
 H   -5.204601286690    2.677444133403   -0.902247000000
 C   -5.688412286690    2.280924133403    0.000000000000
 S   -5.688412286690    0.448198133403    0.000000000000
 H   -4.347829286690    0.291807133403    0.000000000000
RB    3.200977278267   -0.588828685118    0.000000000000
