7

 H   -6.871068045150    2.601270058763    0.000000000000
 H   -5.331509045150    2.692249058763    0.902247000000
 H   -5.331509045150    2.692249058763   -0.902247000000
 C   -5.815320045150    2.295729058763    0.000000000000
 S   -5.815320045150    0.463003058763    0.000000000000
 H   -4.474737045150    0.306612058763    0.000000000000
RB    3.272722324148   -0.597198386562    0.000000000000
