7

 H   -7.124883562069    2.630879909482    0.000000000000
 H   -5.585324562069    2.721858909482    0.902247000000
 H   -5.585324562069    2.721858909482   -0.902247000000
 C   -6.069135562069    2.325338909482    0.000000000000
 S   -6.069135562069    0.492612909482    0.000000000000
 H   -4.728552562069    0.336221909482    0.000000000000
RB    3.416212415911   -0.613937789449    0.000000000000
