7

 H   -7.315245199759    2.653087297521    0.000000000000
 H   -5.775686199759    2.744066297521    0.902247000000
 H   -5.775686199759    2.744066297521   -0.902247000000
 C   -6.259497199759    2.347546297521    0.000000000000
 S   -6.259497199759    0.514820297521    0.000000000000
 H   -4.918914199759    0.358429297521    0.000000000000
RB    3.523829984733   -0.626492341614    0.000000000000
