7

 H   -7.505606837448    2.675294685560    0.000000000000
 H   -5.966047837448    2.766273685560    0.902247000000
 H   -5.966047837448    2.766273685560   -0.902247000000
 C   -6.449858837448    2.369753685560    0.000000000000
 S   -6.449858837448    0.537027685560    0.000000000000
 H   -5.109275837448    0.380636685560    0.000000000000
RB    3.631447553555   -0.639046893780    0.000000000000
