7

 H   -7.632514595908    2.690099610920    0.000000000000
 H   -6.092955595908    2.781078610920    0.902247000000
 H   -6.092955595908    2.781078610920   -0.902247000000
 C   -6.576766595908    2.384558610920    0.000000000000
 S   -6.576766595908    0.551832610920    0.000000000000
 H   -5.236183595908    0.395441610920    0.000000000000
RB    3.703192599436   -0.647416595223    0.000000000000
