7

 H   -7.695968475138    2.697502073600    0.000000000000
 H   -6.156409475138    2.788481073600    0.902247000000
 H   -6.156409475138    2.788481073600   -0.902247000000
 C   -6.640220475138    2.391961073600    0.000000000000
 S   -6.640220475138    0.559235073600    0.000000000000
 H   -5.299637475138    0.402844073600    0.000000000000
RB    3.739065122377   -0.651601445945    0.000000000000
