7

 H   -7.822876233597    2.712306998959    0.000000000000
 H   -6.283317233597    2.803285998959    0.902247000000
 H   -6.283317233597    2.803285998959   -0.902247000000
 C   -6.767128233597    2.406765998959    0.000000000000
 S   -6.767128233597    0.574039998959    0.000000000000
 H   -5.426545233597    0.417648998959    0.000000000000
RB    3.810810168258   -0.659971147389    0.000000000000
