7

 H   -7.886330112827    2.719709461639    0.000000000000
 H   -6.346771112827    2.810688461639    0.902247000000
 H   -6.346771112827    2.810688461639   -0.902247000000
 C   -6.830582112827    2.414168461639    0.000000000000
 S   -6.830582112827    0.581442461639    0.000000000000
 H   -5.489999112827    0.425051461639    0.000000000000
RB    3.846682691199   -0.664155998111    0.000000000000
