7

 H   -8.140145629747    2.749319312358    0.000000000000
 H   -6.600586629747    2.840298312358    0.902247000000
 H   -6.600586629747    2.840298312358   -0.902247000000
 C   -7.084397629747    2.443778312358    0.000000000000
 S   -7.084397629747    0.611052312358    0.000000000000
 H   -5.743814629747    0.454661312358    0.000000000000
RB    3.990172782961   -0.680895400998    0.000000000000
