16

 N   -0.975881507714    1.249333394426    0.092333004265
 C    0.394733904695    1.448808072267    0.088701369889
 H    0.716518201033    2.492553003143    0.110120185582
 C   -1.575596777143   -0.003781765127    0.067803013609
 O   -2.793370808675   -0.170724471194    0.068799094383
 N   -0.650290761532   -1.040559374969    0.040146476620
 H   -1.044864469395   -1.979073684818    0.019637603222
 C    0.755439616863   -0.954520662651    0.031698425829
 O    1.443760289291   -1.978137884453    0.003590487276
 C    1.285208797928    0.413868206083    0.060304794963
 C    2.777498691534    0.597726531545    0.055473985137
 H    3.039046320614    1.666154408413    0.078128153284
 H    3.217643005124    0.139406312123   -0.843634266309
 H    3.228503898243    0.099240046239    0.927410822050
 H   -1.618187731043    2.033586432600    0.112228422555
LI   -0.981576575236    1.273586143695   -1.007384855169
