16

 N   -0.975772310402    1.248868371841    0.113419011331
 C    0.394843102007    1.448343049682    0.109787376955
 H    0.716627398345    2.492087980558    0.131206192648
 C   -1.575487579831   -0.004246787712    0.088889020675
 O   -2.793261611363   -0.171189493779    0.089885101449
 N   -0.650181564220   -1.041024397554    0.061232483686
 H   -1.044755272083   -1.979538707403    0.040723610288
 C    0.755548814175   -0.954985685236    0.052784432895
 O    1.443869486603   -1.978602907038    0.024676494342
 C    1.285317995240    0.413403183498    0.081390802029
 C    2.777607888846    0.597261508960    0.076559992203
 H    3.039155517926    1.665689385828    0.099214160350
 H    3.217752202436    0.138941289538   -0.822548259243
 H    3.228613095555    0.098775023654    0.948496829116
 H   -1.618078533731    2.033121410015    0.133314429621
LI   -0.983538311569    1.281940302662   -1.386196251534
