16

 N   -0.975663113090    1.248403349255    0.134505018398
 C    0.394952299319    1.447878027096    0.130873384022
 H    0.716736595657    2.491622957972    0.152292199715
 C   -1.575378382519   -0.004711810298    0.109975027742
 O   -2.793152414051   -0.171654516365    0.110971108516
 N   -0.650072366908   -1.041489420140    0.082318490753
 H   -1.044646074771   -1.980003729989    0.061809617355
 C    0.755658011487   -0.955450707822    0.073870439962
 O    1.443978683915   -1.979067929624    0.045762501409
 C    1.285427192552    0.412938160912    0.102476809096
 C    2.777717086158    0.596796486374    0.097645999270
 H    3.039264715238    1.665224363242    0.120300167417
 H    3.217861399748    0.138476266952   -0.801462252176
 H    3.228722292867    0.098310001068    0.969582836183
 H   -1.617969336419    2.032656387429    0.154400436688
LI   -0.985500047901    1.290294461629   -1.765007647898
