16

 N   -0.973451867525    1.238986641896    0.561496661495
 C    0.397163544884    1.438461319737    0.557865027119
 H    0.718947841222    2.482206250613    0.579283842812
 C   -1.573167136954   -0.014128517657    0.536966670839
 O   -2.790941168486   -0.181071223724    0.537962751613
 N   -0.647861121343   -1.050906127499    0.509310133850
 H   -1.042434829206   -1.989420437348    0.488801260452
 C    0.757869257052   -0.964867415181    0.500862083059
 O    1.446189929480   -1.988484636983    0.472754144506
 C    1.287638438117    0.403521453553    0.529468452193
 C    2.779928331723    0.587379779015    0.524637642367
 H    3.041475960803    1.655807655883    0.547291810514
 H    3.220072645313    0.129059559593   -0.374470609079
 H    3.230933538432    0.088893293709    1.396574479280
 H   -1.615758090854    2.023239680070    0.581392079785
LI   -1.025225208638    1.459466180705   -9.435938424272
