16

 N   -0.975553915778    1.247938326670    0.155591025464
 C    0.395061496631    1.447413004511    0.151959391088
 H    0.716845792969    2.491157935387    0.173378206781
 C   -1.575269185207   -0.005176832883    0.131061034808
 O   -2.793043216739   -0.172119538950    0.132057115582
 N   -0.649963169596   -1.041954442725    0.103404497819
 H   -1.044536877459   -1.980468752574    0.082895624421
 C    0.755767208799   -0.955915730407    0.094956447028
 O    1.444087881227   -1.979532952209    0.066848508475
 C    1.285536389864    0.412473138327    0.123562816162
 C    2.777826283470    0.596331463789    0.118732006336
 H    3.039373912550    1.664759340657    0.141386174483
 H    3.217970597060    0.138011244367   -0.780376245110
 H    3.228831490179    0.097844978483    0.990668843249
 H   -1.617860139107    2.032191364844    0.175486443754
LI   -0.987461784234    1.298648620596   -2.143819044262
