16

 N   -0.975526616450    1.247822071023    0.160862527231
 C    0.395088795959    1.447296748864    0.157230892855
 H    0.716873092297    2.491041679740    0.178649708548
 C   -1.575241885879   -0.005293088530    0.136332536575
 O   -2.793015917411   -0.172235794597    0.137328617349
 N   -0.649935870268   -1.042070698372    0.108675999586
 H   -1.044509578131   -1.980585008221    0.088167126188
 C    0.755794508127   -0.956031986054    0.100227948795
 O    1.444115180555   -1.979649207856    0.072120010242
 C    1.285563689192    0.412356882680    0.128834317929
 C    2.777853582798    0.596215208142    0.124003508103
 H    3.039401211878    1.664643085010    0.146657676250
 H    3.217997896388    0.137894988720   -0.775104743343
 H    3.228858789507    0.097728722836    0.995940345016
 H   -1.617832839779    2.032075109197    0.180757945521
LI   -0.987952218317    1.300737160337   -2.238521893353
