16

 N   -0.975362820482    1.247124537145    0.192491537831
 C    0.395252591927    1.446599214986    0.188859903455
 H    0.717036888265    2.490344145862    0.210278719148
 C   -1.575078089911   -0.005990622408    0.167961547175
 O   -2.792852121443   -0.172933328475    0.168957627949
 N   -0.649772074300   -1.042768232250    0.140305010186
 H   -1.044345782163   -1.981282542099    0.119796136788
 C    0.755958304095   -0.956729519932    0.131856959395
 O    1.444278976523   -1.980346741734    0.103749020842
 C    1.285727485160    0.411659348802    0.160463328529
 C    2.778017378766    0.595517674264    0.155632518703
 H    3.039565007846    1.663945551132    0.178286686850
 H    3.218161692356    0.137197454842   -0.743475732743
 H    3.229022585475    0.097031188958    1.027569355616
 H   -1.617669043811    2.031377575319    0.212386956121
LI   -0.990894822816    1.313268398787   -2.806738987899
