16

 N   -0.975253623170    1.246659514559    0.213577544897
 C    0.395361789239    1.446134192400    0.209945910521
 H    0.717146085577    2.489879123276    0.231364726214
 C   -1.574968892599   -0.006455644994    0.189047554241
 O   -2.792742924131   -0.173398351061    0.190043635015
 N   -0.649662876988   -1.043233254836    0.161391017252
 H   -1.044236584851   -1.981747564685    0.140882143854
 C    0.756067501407   -0.957194542518    0.152942966461
 O    1.444388173835   -1.980811764320    0.124835027908
 C    1.285836682472    0.411194326216    0.181549335595
 C    2.778126576078    0.595052651678    0.176718525769
 H    3.039674205158    1.663480528546    0.199372693916
 H    3.218270889668    0.136732432256   -0.722389725677
 H    3.229131782787    0.096566166372    1.048655362682
 H   -1.617559846499    2.030912552733    0.233472963187
LI   -0.992856559149    1.321622557754   -3.185550384263
