16

 N   -0.975226323843    1.246543258913    0.218849046664
 C    0.395389088566    1.446017936754    0.215217412288
 H    0.717173384904    2.489762867630    0.236636227981
 C   -1.574941593272   -0.006571900640    0.194319056008
 O   -2.792715624804   -0.173514606707    0.195315136782
 N   -0.649635577661   -1.043349510482    0.166662519019
 H   -1.044209285524   -1.981863820331    0.146153645621
 C    0.756094800734   -0.957310798164    0.158214468228
 O    1.444415473162   -1.980928019966    0.130106529675
 C    1.285863981799    0.411078070570    0.186820837362
 C    2.778153875405    0.594936396032    0.181990027536
 H    3.039701504485    1.663364272900    0.204644195683
 H    3.218298188995    0.136616176610   -0.717118223910
 H    3.229159082114    0.096449910726    1.053926864449
 H   -1.617532547172    2.030796297087    0.238744464954
LI   -0.993346993232    1.323711097496   -3.280253233354
