16

 N   -0.975144425859    1.246194491973    0.234663551964
 C    0.395470986550    1.445669169814    0.231031917588
 H    0.717255282888    2.489414100690    0.252450733281
 C   -1.574859695288   -0.006920667580    0.210133561308
 O   -2.792633726820   -0.173863373647    0.211129642082
 N   -0.649553679677   -1.043698277422    0.182477024319
 H   -1.044127387540   -1.982212587271    0.161968150921
 C    0.756176698718   -0.957659565104    0.174028973528
 O    1.444497371146   -1.981276786906    0.145921034975
 C    1.285945879783    0.410729303630    0.202635342662
 C    2.778235773389    0.594587629092    0.197804532836
 H    3.039783402469    1.663015505960    0.220458700983
 H    3.218380086979    0.136267409670   -0.701303718610
 H    3.229240980098    0.096101143786    1.069741369749
 H   -1.617450649188    2.030447530147    0.254558970254
LI   -0.994818295481    1.329976716721   -3.564361780627
