16

 N   -0.975117126531    1.246078236327    0.239935053731
 C    0.395498285878    1.445552914168    0.236303419355
 H    0.717282582216    2.489297845044    0.257722235048
 C   -1.574832395960   -0.007036923226    0.215405063075
 O   -2.792606427492   -0.173979629293    0.216401143849
 N   -0.649526380349   -1.043814533068    0.187748526086
 H   -1.044100088212   -1.982328842917    0.167239652688
 C    0.756203998046   -0.957775820750    0.179300475295
 O    1.444524670474   -1.981393042552    0.151192536742
 C    1.285973179111    0.410613047984    0.207906844429
 C    2.778263072717    0.594471373446    0.203076034603
 H    3.039810701797    1.662899250314    0.225730202750
 H    3.218407386307    0.136151154024   -0.696032216843
 H    3.229268279426    0.095984888140    1.075012871516
 H   -1.617423349860    2.030331274501    0.259830472021
LI   -0.995308729565    1.332065256462   -3.659064629718
