16

 N   -0.974926031235    1.245264446802    0.276835566097
 C    0.395689381174    1.444739124643    0.273203931721
 H    0.717473677512    2.488484055519    0.294622747414
 C   -1.574641300664   -0.007850712751    0.252305575441
 O   -2.792415332196   -0.174793418818    0.253301656215
 N   -0.649335285053   -1.044628322593    0.224649038452
 H   -1.043908992916   -1.983142632442    0.204140165054
 C    0.756395093342   -0.958589610275    0.216200987661
 O    1.444715765770   -1.982206832077    0.188093049108
 C    1.286164274407    0.409799258459    0.244807356795
 C    2.778454168013    0.593657583921    0.239976546969
 H    3.040001797093    1.662085460789    0.262630715116
 H    3.218598481603    0.135337364499   -0.659131704477
 H    3.229459374722    0.095171098615    1.111913383882
 H   -1.617232254564    2.029517484976    0.296730984387
LI   -0.998741768147    1.346685034654   -4.321984573356
