16

 N   -0.974898731907    1.245148191156    0.282107067864
 C    0.395716680502    1.444622868997    0.278475433488
 H    0.717500976840    2.488367799873    0.299894249181
 C   -1.574614001336   -0.007966968397    0.257577077208
 O   -2.792388032868   -0.174909674464    0.258573157982
 N   -0.649307985725   -1.044744578239    0.229920540219
 H   -1.043881693588   -1.983258888088    0.209411666821
 C    0.756422392670   -0.958705865921    0.221472489428
 O    1.444743065098   -1.982323087723    0.193364550875
 C    1.286191573735    0.409683002813    0.250078858562
 C    2.778481467341    0.593541328275    0.245248048736
 H    3.040029096421    1.661969205143    0.267902216883
 H    3.218625780931    0.135221108853   -0.653860202710
 H    3.229486674050    0.095054842969    1.117184885649
 H   -1.617204955236    2.029401229330    0.302002486154
LI   -0.999232202230    1.348773574396   -4.416687422447
