16

 N   -0.974844133251    1.244915679863    0.292650071397
 C    0.395771279158    1.444390357704    0.289018437021
 H    0.717555575496    2.488135288580    0.310437252714
 C   -1.574559402680   -0.008199479690    0.268120080741
 O   -2.792333434212   -0.175142185757    0.269116161515
 N   -0.649253387069   -1.044977089532    0.240463543752
 H   -1.043827094932   -1.983491399381    0.219954670354
 C    0.756476991326   -0.958938377214    0.232015492961
 O    1.444797663754   -1.982555599016    0.203907554408
 C    1.286246172391    0.409450491520    0.260621862095
 C    2.778536065997    0.593308816982    0.255791052269
 H    3.040083695077    1.661736693850    0.278445220416
 H    3.218680379587    0.134988597560   -0.643317199177
 H    3.229541272706    0.094822331676    1.127727889182
 H   -1.617150356580    2.029168718037    0.312545489687
LI   -1.000213070396    1.352950653879   -4.606093120629
