16

 N   -0.974789534595    1.244683168570    0.303193074930
 C    0.395825877814    1.444157846411    0.299561440554
 H    0.717610174152    2.487902777287    0.320980256247
 C   -1.574504804024   -0.008431990983    0.278663084274
 O   -2.792278835556   -0.175374697050    0.279659165048
 N   -0.649198788413   -1.045209600825    0.251006547285
 H   -1.043772496276   -1.983723910674    0.230497673887
 C    0.756531589982   -0.959170888507    0.242558496494
 O    1.444852262410   -1.982788110309    0.214450557941
 C    1.286300771047    0.409217980227    0.271164865628
 C    2.778590664653    0.593076305689    0.266334055802
 H    3.040138293733    1.661504182557    0.288988223949
 H    3.218734978243    0.134756086267   -0.632774195644
 H    3.229595871362    0.094589820383    1.138270892715
 H   -1.617095757924    2.028936206744    0.323088493220
LI   -1.001193938563    1.357127733362   -4.795498818811
