16

 N   -0.974762235267    1.244566912924    0.308464576697
 C    0.395853177142    1.444041590765    0.304832942321
 H    0.717637473480    2.487786521641    0.326251758014
 C   -1.574477504696   -0.008548246629    0.283934586041
 O   -2.792251536228   -0.175490952696    0.284930666815
 N   -0.649171489085   -1.045325856471    0.256278049052
 H   -1.043745196948   -1.983840166320    0.235769175654
 C    0.756558889310   -0.959287144153    0.247829998261
 O    1.444879561738   -1.982904365955    0.219722059708
 C    1.286328070375    0.409101724581    0.276436367395
 C    2.778617963981    0.592960050043    0.271605557569
 H    3.040165593061    1.661387926911    0.294259725716
 H    3.218762277571    0.134639830621   -0.627502693877
 H    3.229623170690    0.094473564737    1.143542394482
 H   -1.617068458596    2.028819951098    0.328359994987
LI   -1.001684372646    1.359216273104   -4.890201667902
