16

 N   -0.974734935939    1.244450657277    0.313736078463
 C    0.395880476470    1.443925335118    0.310104444087
 H    0.717664772808    2.487670265994    0.331523259780
 C   -1.574450205368   -0.008664502276    0.289206087807
 O   -2.792224236900   -0.175607208343    0.290202168581
 N   -0.649144189757   -1.045442112118    0.261549550818
 H   -1.043717897620   -1.983956421967    0.241040677420
 C    0.756586188638   -0.959403399800    0.253101500027
 O    1.444906861066   -1.983020621602    0.224993561474
 C    1.286355369703    0.408985468934    0.281707869161
 C    2.778645263309    0.592843794396    0.276877059335
 H    3.040192892389    1.661271671264    0.299531227482
 H    3.218789576899    0.134523574974   -0.622231192111
 H    3.229650470018    0.094357309090    1.148813896248
 H   -1.617041159268    2.028703695451    0.333631496753
LI   -1.002174806729    1.361304812846   -4.984904516993
