16

 N   -0.974653037955    1.244101890338    0.329550583763
 C    0.395962374454    1.443576568179    0.325918949387
 H    0.717746670792    2.487321499055    0.347337765080
 C   -1.574368307384   -0.009013269215    0.305020593107
 O   -2.792142338916   -0.175955975282    0.306016673881
 N   -0.649062291773   -1.045790879057    0.277364056118
 H   -1.043635999636   -1.984305188906    0.256855182720
 C    0.756668086622   -0.959752166739    0.268916005327
 O    1.444988759050   -1.983369388541    0.240808066774
 C    1.286437267687    0.408636701995    0.297522374461
 C    2.778727161293    0.592495027457    0.292691564635
 H    3.040274790373    1.660922904325    0.315345732782
 H    3.218871474883    0.134174808035   -0.606416686811
 H    3.229732368002    0.094008542151    1.164628401548
 H   -1.616959261284    2.028354928512    0.349446002053
LI   -1.003646108978    1.367570432071   -5.269013064266
