16

 N   -0.974598439300    1.243869379045    0.340093587297
 C    0.396016973109    1.443344056886    0.336461952921
 H    0.717801269447    2.487088987762    0.357880768614
 C   -1.574313708729   -0.009245780508    0.315563596641
 O   -2.792087740261   -0.176188486575    0.316559677415
 N   -0.649007693118   -1.046023390350    0.287907059652
 H   -1.043581400981   -1.984537700199    0.267398186254
 C    0.756722685277   -0.959984678032    0.279459008861
 O    1.445043357705   -1.983601899834    0.251351070308
 C    1.286491866342    0.408404190702    0.308065377995
 C    2.778781759948    0.592262516164    0.303234568169
 H    3.040329389028    1.660690393032    0.325888736316
 H    3.218926073538    0.133942296742   -0.595873683277
 H    3.229786966657    0.093776030858    1.175171405082
 H   -1.616904662629    2.028122417219    0.359989005587
LI   -1.004626977145    1.371747511554   -5.458418762448
