16

 N   -0.974543840644    1.243636867752    0.350636590830
 C    0.396071571765    1.443111545593    0.347004956454
 H    0.717855868103    2.486856476469    0.368423772147
 C   -1.574259110073   -0.009478291801    0.326106600174
 O   -2.792033141605   -0.176420997868    0.327102680948
 N   -0.648953094462   -1.046255901643    0.298450063185
 H   -1.043526802325   -1.984770211492    0.277941189787
 C    0.756777283933   -0.960217189325    0.290002012394
 O    1.445097956361   -1.983834411127    0.261894073841
 C    1.286546464998    0.408171679409    0.318608381528
 C    2.778836358604    0.592030004871    0.313777571702
 H    3.040383987684    1.660457881739    0.336431739849
 H    3.218980672194    0.133709785449   -0.585330679744
 H    3.229841565313    0.093543519565    1.185714408615
 H   -1.616850063973    2.027889905926    0.370532009120
LI   -1.005607845311    1.375924591038   -5.647824460630
