16

 N   -0.974489241988    1.243404356460    0.361179594363
 C    0.396126170421    1.442879034301    0.357547959987
 H    0.717910466759    2.486623965177    0.378966775680
 C   -1.574204511417   -0.009710803093    0.336649603707
 O   -2.791978542949   -0.176653509160    0.337645684481
 N   -0.648898495806   -1.046488412935    0.308993066718
 H   -1.043472203669   -1.985002722784    0.288484193320
 C    0.756831882589   -0.960449700617    0.300545015927
 O    1.445152555017   -1.984066922419    0.272437077374
 C    1.286601063654    0.407939168117    0.329151385061
 C    2.778890957260    0.591797493579    0.324320575235
 H    3.040438586340    1.660225370447    0.346974743382
 H    3.219035270850    0.133477274157   -0.574787676211
 H    3.229896163969    0.093311008273    1.196257412148
 H   -1.616795465317    2.027657394634    0.381075012653
LI   -1.006588713477    1.380101670521   -5.837230158812
