16

 N   -0.974380044676    1.242939333874    0.382265601430
 C    0.396235367733    1.442414011715    0.378633967054
 H    0.718019664071    2.486158942591    0.400052782747
 C   -1.574095314105   -0.010175825679    0.357735610774
 O   -2.791869345637   -0.177118531746    0.358731691548
 N   -0.648789298494   -1.046953435521    0.330079073785
 H   -1.043363006357   -1.985467745370    0.309570200387
 C    0.756941079901   -0.960914723203    0.321631022994
 O    1.445261752329   -1.984531945005    0.293523084441
 C    1.286710260966    0.407474145531    0.350237392128
 C    2.779000154572    0.591332470993    0.345406582302
 H    3.040547783652    1.659760347861    0.368060750449
 H    3.219144468162    0.133012251571   -0.553701669144
 H    3.230005361281    0.092845985687    1.217343419215
 H   -1.616686268005    2.027192372048    0.402161019720
LI   -1.008550449810    1.388455829488   -6.216041555176
