16

 N   -0.974352745348    1.242823078228    0.387537103196
 C    0.396262667061    1.442297756069    0.383905468820
 H    0.718046963399    2.486042686945    0.405324284513
 C   -1.574068014777   -0.010292081325    0.363007112540
 O   -2.791842046309   -0.177234787392    0.364003193314
 N   -0.648761999166   -1.047069691167    0.335350575551
 H   -1.043335707029   -1.985584001016    0.314841702153
 C    0.756968379229   -0.961030978849    0.326902524760
 O    1.445289051657   -1.984648200651    0.298794586207
 C    1.286737560294    0.407357889885    0.355508893894
 C    2.779027453900    0.591216215347    0.350678084068
 H    3.040575082980    1.659644092215    0.373332252215
 H    3.219171767490    0.132895995925   -0.548430167378
 H    3.230032660609    0.092729730041    1.222614920981
 H   -1.616658968677    2.027076116402    0.407432521486
LI   -1.009040883893    1.390544369229   -6.310744404267
