16

 N   -0.974243548036    1.242358055642    0.408623110263
 C    0.396371864373    1.441832733483    0.404991475887
 H    0.718156160711    2.485577664359    0.426410291580
 C   -1.573958817465   -0.010757103911    0.384093119607
 O   -2.791732848997   -0.177699809978    0.385089200381
 N   -0.648652801854   -1.047534713753    0.356436582618
 H   -1.043226509717   -1.986049023602    0.335927709220
 C    0.757077576541   -0.961496001435    0.347988531827
 O    1.445398248969   -1.985113223237    0.319880593274
 C    1.286846757606    0.406892867299    0.376594900961
 C    2.779136651212    0.590751192761    0.371764091135
 H    3.040684280292    1.659179069629    0.394418259282
 H    3.219280964802    0.132430973339   -0.527344160311
 H    3.230141857921    0.092264707455    1.243700928048
 H   -1.616549771365    2.026611093816    0.428518528553
LI   -1.011002620226    1.398898528196   -6.689555800632
