16

 N   -0.974161650052    1.242009288703    0.424437615563
 C    0.396453762357    1.441483966544    0.420805981187
 H    0.718238058695    2.485228897420    0.442224796880
 C   -1.573876919481   -0.011105870850    0.399907624907
 O   -2.791650951013   -0.178048576917    0.400903705681
 N   -0.648570903870   -1.047883480692    0.372251087918
 H   -1.043144611733   -1.986397790541    0.351742214520
 C    0.757159474525   -0.961844768374    0.363803037127
 O    1.445480146953   -1.985461990176    0.335695098574
 C    1.286928655590    0.406544100360    0.392409406261
 C    2.779218549196    0.590402425822    0.387578596435
 H    3.040766178276    1.658830302690    0.410232764582
 H    3.219362862786    0.132082206400   -0.511529655011
 H    3.230223755905    0.091915940516    1.259515433348
 H   -1.616467873381    2.026262326877    0.444333033853
LI   -1.012473922475    1.405164147421   -6.973664347905
