16

 N   -0.973997854084    1.241311754824    0.456066626162
 C    0.396617558325    1.440786432665    0.452434991786
 H    0.718401854663    2.484531363541    0.473853807479
 C   -1.573713123513   -0.011803404729    0.431536635506
 O   -2.791487155045   -0.178746110796    0.432532716280
 N   -0.648407107902   -1.048581014571    0.403880098517
 H   -1.042980815765   -1.987095324420    0.383371225119
 C    0.757323270493   -0.962542302253    0.395432047726
 O    1.445643942921   -1.986159524055    0.367324109173
 C    1.287092451558    0.405846566481    0.424038416860
 C    2.779382345164    0.589704891943    0.419207607034
 H    3.040929974244    1.658132768811    0.441861775181
 H    3.219526658754    0.131384672521   -0.479900644412
 H    3.230387551873    0.091218406637    1.291144443947
 H   -1.616304077413    2.025564792998    0.475962044452
LI   -1.015416526974    1.417695385871   -7.541881442451
