16

 N   -0.973970554756    1.241195499178    0.461338127929
 C    0.396644857653    1.440670177019    0.457706493553
 H    0.718429153991    2.484415107895    0.479125309246
 C   -1.573685824185   -0.011919660375    0.436808137273
 O   -2.791459855717   -0.178862366442    0.437804218047
 N   -0.648379808574   -1.048697270217    0.409151600284
 H   -1.042953516437   -1.987211580066    0.388642726886
 C    0.757350569821   -0.962658557899    0.400703549493
 O    1.445671242249   -1.986275779701    0.372595610940
 C    1.287119750886    0.405730310835    0.429309918627
 C    2.779409644492    0.589588636297    0.424479108801
 H    3.040957273572    1.658016513165    0.447133276948
 H    3.219553958082    0.131268416875   -0.474629142645
 H    3.230414851201    0.091102150991    1.296415945714
 H   -1.616276778085    2.025448537352    0.481233546219
LI   -1.015906961058    1.419783925613   -7.636584291542
