16

 N   -0.973806758789    1.240497965299    0.492967138529
 C    0.396808653620    1.439972643140    0.489335504153
 H    0.718592949958    2.483717574016    0.510754319846
 C   -1.573522028218   -0.012617194254    0.468437147873
 O   -2.791296059750   -0.179559900321    0.469433228647
 N   -0.648216012607   -1.049394804096    0.440780610884
 H   -1.042789720470   -1.987909113945    0.420271737486
 C    0.757514365788   -0.963356091778    0.432332560093
 O    1.445835038216   -1.986973313580    0.404224621540
 C    1.287283546853    0.405032776956    0.460938929227
 C    2.779573440459    0.588891102418    0.456108119401
 H    3.041121069539    1.657318979286    0.478762287548
 H    3.219717754049    0.130570882996   -0.443000132045
 H    3.230578647168    0.090404617112    1.328044956314
 H   -1.616112982118    2.024751003473    0.512862556819
LI   -1.018849565557    1.432315164063   -8.204801386088
