16

 N   -0.973670262149    1.239916687067    0.519324647362
 C    0.396945150260    1.439391364908    0.515693012986
 H    0.718729446598    2.483136295784    0.537111828679
 C   -1.573385531578   -0.013198472486    0.494794656706
 O   -2.791159563110   -0.180141178553    0.495790737480
 N   -0.648079515967   -1.049976082328    0.467138119717
 H   -1.042653223830   -1.988490392177    0.446629246319
 C    0.757650862428   -0.963937370010    0.458690068926
 O    1.445971534856   -1.987554591812    0.430582130373
 C    1.287420043493    0.404451498724    0.487296438060
 C    2.779709937099    0.588309824186    0.482465628234
 H    3.041257566179    1.656737701054    0.505119796381
 H    3.219854250689    0.129989604764   -0.416642623212
 H    3.230715143808    0.089823338880    1.354402465147
 H   -1.615976485478    2.024169725241    0.539220065652
LI   -1.021301735972    1.442757862771   -8.678315631543
