16

 N   -0.973642962821    1.239800431421    0.524596149129
 C    0.396972449588    1.439275109262    0.520964514753
 H    0.718756745926    2.483020040138    0.542383330446
 C   -1.573358232250   -0.013314728132    0.500066158473
 O   -2.791132263782   -0.180257434199    0.501062239247
 N   -0.648052216639   -1.050092337974    0.472409621484
 H   -1.042625924502   -1.988606647823    0.451900748086
 C    0.757678161756   -0.964053625656    0.463961570693
 O    1.445998834184   -1.987670847458    0.435853632140
 C    1.287447342821    0.404335243078    0.492567939827
 C    2.779737236427    0.588193568540    0.487737130001
 H    3.041284865507    1.656621445408    0.510391298148
 H    3.219881550017    0.129873349118   -0.411371121445
 H    3.230742443136    0.089707083234    1.359673966914
 H   -1.615949186150    2.024053469595    0.544491567419
LI   -1.021792170056    1.444846402513   -8.773018480634
