14

 C   -0.977585871138   -0.097784538625    0.000000000000
 N   -0.348831871138    1.091853461375    0.000000000000
 H   -0.868178871138    1.960066461375    0.000000000000
 H    0.661157128862    1.151032461375    0.000000000000
 N   -2.319805871138   -0.138676538625    0.000000000000
 H   -2.867847871138    0.712057461375    0.000000000000
 H   -2.817409871138   -1.019099538625    0.000000000000
 N   -0.276862871138   -1.235482538625    0.000000000000
 H    0.734424128862   -1.167081538625    0.000000000000
 C   -0.892312871138   -2.568969538625    0.000000000000
 H   -0.084906871138   -3.309180538625    0.000000000000
 H   -1.500181871138   -2.715959538625    0.905528000000
 H   -1.500181871138   -2.715959538625   -0.905528000000
CL    2.058760043607    1.232923197702    0.000000000000
