14

 C   -1.105644428721   -0.105287964285    0.000000000000
 N   -0.476890428721    1.084350035715    0.000000000000
 H   -0.996237428721    1.952563035715    0.000000000000
 H    0.533098571279    1.143529035715    0.000000000000
 N   -2.447864428721   -0.146179964285    0.000000000000
 H   -2.995906428721    0.704554035715    0.000000000000
 H   -2.945468428721   -1.026602964285    0.000000000000
 N   -0.404921428721   -1.242985964285    0.000000000000
 H    0.606365571279   -1.174584964285    0.000000000000
 C   -1.020371428721   -2.576472964285    0.000000000000
 H   -0.212965428721   -3.316683964285    0.000000000000
 H   -1.628240428721   -2.723462964285    0.905528000000
 H   -1.628240428721   -2.723462964285   -0.905528000000
CL    2.330016604522    1.248817125277    0.000000000000
