14

 C   -1.169673707513   -0.109039677115    0.000000000000
 N   -0.540919707513    1.080598322885    0.000000000000
 H   -1.060266707513    1.948811322885    0.000000000000
 H    0.469069292487    1.139777322885    0.000000000000
 N   -2.511893707513   -0.149931677115    0.000000000000
 H   -3.059935707513    0.700802322885    0.000000000000
 H   -3.009497707513   -1.030354677115    0.000000000000
 N   -0.468950707513   -1.246737677115    0.000000000000
 H    0.542336292487   -1.178336677115    0.000000000000
 C   -1.084400707513   -2.580224677115    0.000000000000
 H   -0.276994707513   -3.320435677115    0.000000000000
 H   -1.692269707513   -2.727214677115    0.905528000000
 H   -1.692269707513   -2.727214677115   -0.905528000000
CL    2.465644884980    1.256764089065    0.000000000000
