14

 C   -1.329746904493   -0.118418959191    0.000000000000
 N   -0.700992904493    1.071219040809    0.000000000000
 H   -1.220339904493    1.939432040809    0.000000000000
 H    0.308996095507    1.130398040809    0.000000000000
 N   -2.671966904493   -0.159310959191    0.000000000000
 H   -3.220008904493    0.691423040809    0.000000000000
 H   -3.169570904493   -1.039733959191    0.000000000000
 N   -0.629023904493   -1.256116959191    0.000000000000
 H    0.382263095507   -1.187715959191    0.000000000000
 C   -1.244473904493   -2.589603959191    0.000000000000
 H   -0.437067904493   -3.329814959191    0.000000000000
 H   -1.852342904493   -2.736593959191    0.905528000000
 H   -1.852342904493   -2.736593959191   -0.905528000000
CL    2.804715586123    1.276631498535    0.000000000000
