14

 C   -1.425790822681   -0.124046528436    0.000000000000
 N   -0.797036822681    1.065591471564    0.000000000000
 H   -1.316383822681    1.933804471564    0.000000000000
 H    0.212952177319    1.124770471564    0.000000000000
 N   -2.768010822681   -0.164938528436    0.000000000000
 H   -3.316052822681    0.685795471564    0.000000000000
 H   -3.265614822681   -1.045361528436    0.000000000000
 N   -0.725067822681   -1.261744528436    0.000000000000
 H    0.286219177319   -1.193343528436    0.000000000000
 C   -1.340517822681   -2.595231528436    0.000000000000
 H   -0.533111822681   -3.335442528436    0.000000000000
 H   -1.948386822681   -2.742221528436    0.905528000000
 H   -1.948386822681   -2.742221528436   -0.905528000000
CL    3.008158006809    1.288551944217    0.000000000000
