14

 C   -1.585864019661   -0.133425810512    0.000000000000
 N   -0.957110019661    1.056212189488    0.000000000000
 H   -1.476457019661    1.924425189488    0.000000000000
 H    0.052878980339    1.115391189488    0.000000000000
 N   -2.928084019661   -0.174317810512    0.000000000000
 H   -3.476126019661    0.676416189488    0.000000000000
 H   -3.425688019661   -1.054740810512    0.000000000000
 N   -0.885141019661   -1.271123810512    0.000000000000
 H    0.126145980339   -1.202722810512    0.000000000000
 C   -1.500591019661   -2.604610810512    0.000000000000
 H   -0.693185019661   -3.344821810512    0.000000000000
 H   -2.108460019661   -2.751600810512    0.905528000000
 H   -2.108460019661   -2.751600810512   -0.905528000000
CL    3.347228707952    1.308419353687    0.000000000000
