14

 C   -1.649893298453   -0.137177523342    0.000000000000
 N   -1.021139298453    1.052460476658    0.000000000000
 H   -1.540486298453    1.920673476658    0.000000000000
 H   -0.011150298453    1.111639476658    0.000000000000
 N   -2.992113298453   -0.178069523342    0.000000000000
 H   -3.540155298453    0.672664476658    0.000000000000
 H   -3.489717298453   -1.058492523342    0.000000000000
 N   -0.949170298453   -1.274875523342    0.000000000000
 H    0.062116701547   -1.206474523342    0.000000000000
 C   -1.564620298453   -2.608362523342    0.000000000000
 H   -0.757214298453   -3.348573523342    0.000000000000
 H   -2.172489298453   -2.755352523342    0.905528000000
 H   -2.172489298453   -2.755352523342   -0.905528000000
CL    3.482856988410    1.316366317475    0.000000000000
