14

 C   -1.681907937849   -0.139053379757    0.000000000000
 N   -1.053153937849    1.050584620243    0.000000000000
 H   -1.572500937849    1.918797620243    0.000000000000
 H   -0.043164937849    1.109763620243    0.000000000000
 N   -3.024127937849   -0.179945379757    0.000000000000
 H   -3.572169937849    0.670788620243    0.000000000000
 H   -3.521731937849   -1.060368379757    0.000000000000
 N   -0.981184937849   -1.276751379757    0.000000000000
 H    0.030102062151   -1.208350379757    0.000000000000
 C   -1.596634937849   -2.610238379757    0.000000000000
 H   -0.789228937849   -3.350449379757    0.000000000000
 H   -2.204503937849   -2.757228379757    0.905528000000
 H   -2.204503937849   -2.757228379757   -0.905528000000
CL    3.550671128638    1.320339799369    0.000000000000
