14

 C   -1.713922577245   -0.140929236172    0.000000000000
 N   -1.085168577245    1.048708763828    0.000000000000
 H   -1.604515577245    1.916921763828    0.000000000000
 H   -0.075179577245    1.107887763828    0.000000000000
 N   -3.056142577245   -0.181821236172    0.000000000000
 H   -3.604184577245    0.668912763828    0.000000000000
 H   -3.553746577245   -1.062244236172    0.000000000000
 N   -1.013199577245   -1.278627236172    0.000000000000
 H   -0.001912577245   -1.210226236172    0.000000000000
 C   -1.628649577245   -2.612114236172    0.000000000000
 H   -0.821243577245   -3.352325236172    0.000000000000
 H   -2.236518577245   -2.759104236172    0.905528000000
 H   -2.236518577245   -2.759104236172   -0.905528000000
CL    3.618485268867    1.324313281262    0.000000000000
