14

 C   -1.873995774225   -0.150308518247    0.000000000000
 N   -1.245241774225    1.039329481753    0.000000000000
 H   -1.764588774225    1.907542481753    0.000000000000
 H   -0.235252774225    1.098508481753    0.000000000000
 N   -3.216215774225   -0.191200518247    0.000000000000
 H   -3.764257774225    0.659533481753    0.000000000000
 H   -3.713819774225   -1.071623518247    0.000000000000
 N   -1.173272774225   -1.288006518247    0.000000000000
 H   -0.161985774225   -1.219605518247    0.000000000000
 C   -1.788722774225   -2.621493518247    0.000000000000
 H   -0.981316774225   -3.361704518247    0.000000000000
 H   -2.396591774225   -2.768483518247    0.905528000000
 H   -2.396591774225   -2.768483518247   -0.905528000000
CL    3.957555970010    1.344180690732    0.000000000000
