14

 C   -1.906010413621   -0.152184374662    0.000000000000
 N   -1.277256413621    1.037453625338    0.000000000000
 H   -1.796603413621    1.905666625338    0.000000000000
 H   -0.267267413621    1.096632625338    0.000000000000
 N   -3.248230413621   -0.193076374662    0.000000000000
 H   -3.796272413621    0.657657625338    0.000000000000
 H   -3.745834413621   -1.073499374662    0.000000000000
 N   -1.205287413621   -1.289882374662    0.000000000000
 H   -0.194000413621   -1.221481374662    0.000000000000
 C   -1.820737413621   -2.623369374662    0.000000000000
 H   -1.013331413621   -3.363580374662    0.000000000000
 H   -2.428606413621   -2.770359374662    0.905528000000
 H   -2.428606413621   -2.770359374662   -0.905528000000
CL    4.025370110239    1.348154172626    0.000000000000
