14

 C   -1.938025053017   -0.154060231078    0.000000000000
 N   -1.309271053017    1.035577768922    0.000000000000
 H   -1.828618053017    1.903790768922    0.000000000000
 H   -0.299282053017    1.094756768922    0.000000000000
 N   -3.280245053017   -0.194952231078    0.000000000000
 H   -3.828287053017    0.655781768922    0.000000000000
 H   -3.777849053017   -1.075375231078    0.000000000000
 N   -1.237302053017   -1.291758231078    0.000000000000
 H   -0.226015053017   -1.223357231078    0.000000000000
 C   -1.852752053017   -2.625245231078    0.000000000000
 H   -1.045346053017   -3.365456231078    0.000000000000
 H   -2.460621053017   -2.772235231078    0.905528000000
 H   -2.460621053017   -2.772235231078   -0.905528000000
CL    4.093184250468    1.352127654520    0.000000000000
