14

 C   -2.258171446977   -0.172818795228    0.000000000000
 N   -1.629417446977    1.016819204772    0.000000000000
 H   -2.148764446977    1.885032204772    0.000000000000
 H   -0.619428446977    1.075998204772    0.000000000000
 N   -3.600391446977   -0.213710795228    0.000000000000
 H   -4.148433446977    0.637023204772    0.000000000000
 H   -4.097995446977   -1.094133795228    0.000000000000
 N   -1.557448446977   -1.310516795228    0.000000000000
 H   -0.546161446977   -1.242115795228    0.000000000000
 C   -2.172898446977   -2.644003795228    0.000000000000
 H   -1.365492446977   -3.384214795228    0.000000000000
 H   -2.780767446977   -2.790993795228    0.905528000000
 H   -2.780767446977   -2.790993795228   -0.905528000000
CL    4.771325652754    1.391862473460    0.000000000000
