14

 C   -2.290186086373   -0.174694651643    0.000000000000
 N   -1.661432086373    1.014943348357    0.000000000000
 H   -2.180779086373    1.883156348357    0.000000000000
 H   -0.651443086373    1.074122348357    0.000000000000
 N   -3.632406086373   -0.215586651643    0.000000000000
 H   -4.180448086373    0.635147348357    0.000000000000
 H   -4.130010086373   -1.096009651643    0.000000000000
 N   -1.589463086373   -1.312392651643    0.000000000000
 H   -0.578176086373   -1.243991651643    0.000000000000
 C   -2.204913086373   -2.645879651643    0.000000000000
 H   -1.397507086373   -3.386090651643    0.000000000000
 H   -2.812782086373   -2.792869651643    0.905528000000
 H   -2.812782086373   -2.792869651643   -0.905528000000
CL    4.839139792983    1.395835955354    0.000000000000
