14

 C   -2.322200725769   -0.176570508059    0.000000000000
 N   -1.693446725769    1.013067491941    0.000000000000
 H   -2.212793725769    1.881280491941    0.000000000000
 H   -0.683457725769    1.072246491941    0.000000000000
 N   -3.664420725769   -0.217462508059    0.000000000000
 H   -4.212462725769    0.633271491941    0.000000000000
 H   -4.162024725769   -1.097885508059    0.000000000000
 N   -1.621477725769   -1.314268508059    0.000000000000
 H   -0.610190725769   -1.245867508059    0.000000000000
 C   -2.236927725769   -2.647755508059    0.000000000000
 H   -1.429521725769   -3.387966508059    0.000000000000
 H   -2.844796725769   -2.794745508059    0.905528000000
 H   -2.844796725769   -2.794745508059   -0.905528000000
CL    4.906953933212    1.399809437248    0.000000000000
