14

 C   -2.354215365164   -0.178446364474    0.000000000000
 N   -1.725461365164    1.011191635526    0.000000000000
 H   -2.244808365164    1.879404635526    0.000000000000
 H   -0.715472365164    1.070370635526    0.000000000000
 N   -3.696435365164   -0.219338364474    0.000000000000
 H   -4.244477365164    0.631395635526    0.000000000000
 H   -4.194039365164   -1.099761364474    0.000000000000
 N   -1.653492365164   -1.316144364474    0.000000000000
 H   -0.642205365164   -1.247743364474    0.000000000000
 C   -2.268942365164   -2.649631364474    0.000000000000
 H   -1.461536365164   -3.389842364474    0.000000000000
 H   -2.876811365164   -2.796621364474    0.905528000000
 H   -2.876811365164   -2.796621364474   -0.905528000000
CL    4.974768073440    1.403782919142    0.000000000000
