14

 C   -2.546303201540   -0.189701502964    0.000000000000
 N   -1.917549201540    0.999936497036    0.000000000000
 H   -2.436896201540    1.868149497036    0.000000000000
 H   -0.907560201540    1.059115497036    0.000000000000
 N   -3.888523201540   -0.230593502964    0.000000000000
 H   -4.436565201540    0.620140497036    0.000000000000
 H   -4.386127201540   -1.111016502964    0.000000000000
 N   -1.845580201540   -1.327399502964    0.000000000000
 H   -0.834293201540   -1.258998502964    0.000000000000
 C   -2.461030201540   -2.660886502964    0.000000000000
 H   -1.653624201540   -3.401097502964    0.000000000000
 H   -3.068899201540   -2.807876502964    0.905528000000
 H   -3.068899201540   -2.807876502964   -0.905528000000
CL    5.381652914812    1.427623810505    0.000000000000
