14

 C   -2.642347119728   -0.195329072209    0.000000000000
 N   -2.013593119728    0.994308927791    0.000000000000
 H   -2.532940119728    1.862521927791    0.000000000000
 H   -1.003604119728    1.053487927791    0.000000000000
 N   -3.984567119728   -0.236221072209    0.000000000000
 H   -4.532609119728    0.614512927791    0.000000000000
 H   -4.482171119728   -1.116644072209    0.000000000000
 N   -1.941624119728   -1.333027072209    0.000000000000
 H   -0.930337119728   -1.264626072209    0.000000000000
 C   -2.557074119728   -2.666514072209    0.000000000000
 H   -1.749668119728   -3.406725072209    0.000000000000
 H   -3.164943119728   -2.813504072209    0.905528000000
 H   -3.164943119728   -2.813504072209   -0.905528000000
CL    5.585095335498    1.439544256187    0.000000000000
