14

 C   -2.738391037916   -0.200956641455    0.000000000000
 N   -2.109637037916    0.988681358545    0.000000000000
 H   -2.628984037916    1.856894358545    0.000000000000
 H   -1.099648037916    1.047860358545    0.000000000000
 N   -4.080611037916   -0.241848641455    0.000000000000
 H   -4.628653037916    0.608885358545    0.000000000000
 H   -4.578215037916   -1.122271641455    0.000000000000
 N   -2.037668037916   -1.338654641455    0.000000000000
 H   -1.026381037916   -1.270253641455    0.000000000000
 C   -2.653118037916   -2.672141641455    0.000000000000
 H   -1.845712037916   -3.412352641455    0.000000000000
 H   -3.260987037916   -2.819131641455    0.905528000000
 H   -3.260987037916   -2.819131641455   -0.905528000000
CL    5.788537756185    1.451464701869    0.000000000000
