14

 C   -2.770405677312   -0.202832497870    0.000000000000
 N   -2.141651677312    0.986805502130    0.000000000000
 H   -2.660998677312    1.855018502130    0.000000000000
 H   -1.131662677312    1.045984502130    0.000000000000
 N   -4.112625677312   -0.243724497870    0.000000000000
 H   -4.660667677312    0.607009502130    0.000000000000
 H   -4.610229677312   -1.124147497870    0.000000000000
 N   -2.069682677312   -1.340530497870    0.000000000000
 H   -1.058395677312   -1.272129497870    0.000000000000
 C   -2.685132677312   -2.674017497870    0.000000000000
 H   -1.877726677312   -3.414228497870    0.000000000000
 H   -3.293001677312   -2.821007497870    0.905528000000
 H   -3.293001677312   -2.821007497870   -0.905528000000
CL    5.856351896413    1.455438183763    0.000000000000
