14

 C   -2.930478874292   -0.212211779945    0.000000000000
 N   -2.301724874292    0.977426220055    0.000000000000
 H   -2.821071874292    1.845639220055    0.000000000000
 H   -1.291735874292    1.036605220055    0.000000000000
 N   -4.272698874292   -0.253103779945    0.000000000000
 H   -4.820740874292    0.597630220055    0.000000000000
 H   -4.770302874292   -1.133526779945    0.000000000000
 N   -2.229755874292   -1.349909779945    0.000000000000
 H   -1.218468874292   -1.281508779945    0.000000000000
 C   -2.845205874292   -2.683396779945    0.000000000000
 H   -2.037799874292   -3.423607779945    0.000000000000
 H   -3.453074874292   -2.830386779945    0.905528000000
 H   -3.453074874292   -2.830386779945   -0.905528000000
CL    6.195422597557    1.475305593233    0.000000000000
