14

 C   -2.962493513688   -0.214087636360    0.000000000000
 N   -2.333739513688    0.975550363640    0.000000000000
 H   -2.853086513688    1.843763363640    0.000000000000
 H   -1.323750513688    1.034729363640    0.000000000000
 N   -4.304713513688   -0.254979636360    0.000000000000
 H   -4.852755513688    0.595754363640    0.000000000000
 H   -4.802317513688   -1.135402636360    0.000000000000
 N   -2.261770513688   -1.351785636360    0.000000000000
 H   -1.250483513688   -1.283384636360    0.000000000000
 C   -2.877220513688   -2.685272636360    0.000000000000
 H   -2.069814513688   -3.425483636360    0.000000000000
 H   -3.485089513688   -2.832262636360    0.905528000000
 H   -3.485089513688   -2.832262636360   -0.905528000000
CL    6.263236737785    1.479279075127    0.000000000000
