14

 C   -3.026522792480   -0.217839349190    0.000000000000
 N   -2.397768792480    0.971798650810    0.000000000000
 H   -2.917115792480    1.840011650810    0.000000000000
 H   -1.387779792480    1.030977650810    0.000000000000
 N   -4.368742792480   -0.258731349190    0.000000000000
 H   -4.916784792480    0.592002650810    0.000000000000
 H   -4.866346792480   -1.139154349190    0.000000000000
 N   -2.325799792480   -1.355537349190    0.000000000000
 H   -1.314512792480   -1.287136349190    0.000000000000
 C   -2.941249792480   -2.689024349190    0.000000000000
 H   -2.133843792480   -3.429235349190    0.000000000000
 H   -3.549118792480   -2.836014349190    0.905528000000
 H   -3.549118792480   -2.836014349190   -0.905528000000
CL    6.398865018243    1.487226038915    0.000000000000
