14

 C   -3.058537431876   -0.219715205605    0.000000000000
 N   -2.429783431876    0.969922794395    0.000000000000
 H   -2.949130431876    1.838135794395    0.000000000000
 H   -1.419794431876    1.029101794395    0.000000000000
 N   -4.400757431876   -0.260607205605    0.000000000000
 H   -4.948799431876    0.590126794395    0.000000000000
 H   -4.898361431876   -1.141030205605    0.000000000000
 N   -2.357814431876   -1.357413205605    0.000000000000
 H   -1.346527431876   -1.289012205605    0.000000000000
 C   -2.973264431876   -2.690900205605    0.000000000000
 H   -2.165858431876   -3.431111205605    0.000000000000
 H   -3.581133431876   -2.837890205605    0.905528000000
 H   -3.581133431876   -2.837890205605   -0.905528000000
CL    6.466679158471    1.491199520809    0.000000000000
