14

 C   -3.122566710668   -0.223466918436    0.000000000000
 N   -2.493812710668    0.966171081564    0.000000000000
 H   -3.013159710668    1.834384081564    0.000000000000
 H   -1.483823710668    1.025350081564    0.000000000000
 N   -4.464786710668   -0.264358918436    0.000000000000
 H   -5.012828710668    0.586375081564    0.000000000000
 H   -4.962390710668   -1.144781918436    0.000000000000
 N   -2.421843710668   -1.361164918436    0.000000000000
 H   -1.410556710668   -1.292763918436    0.000000000000
 C   -3.037293710668   -2.694651918436    0.000000000000
 H   -2.229887710668   -3.434862918436    0.000000000000
 H   -3.645162710668   -2.841641918436    0.905528000000
 H   -3.645162710668   -2.841641918436   -0.905528000000
CL    6.602307438929    1.499146484596    0.000000000000
