14

 C   -3.346669186440   -0.236597913341    0.000000000000
 N   -2.717915186440    0.953040086659    0.000000000000
 H   -3.237262186440    1.821253086659    0.000000000000
 H   -1.707926186440    1.012219086659    0.000000000000
 N   -4.688889186440   -0.277489913341    0.000000000000
 H   -5.236931186440    0.573244086659    0.000000000000
 H   -5.186493186440   -1.157912913341    0.000000000000
 N   -2.645946186440   -1.374295913341    0.000000000000
 H   -1.634659186440   -1.305894913341    0.000000000000
 C   -3.261396186440   -2.707782913341    0.000000000000
 H   -2.453990186440   -3.447993913341    0.000000000000
 H   -3.869265186440   -2.854772913341    0.905528000000
 H   -3.869265186440   -2.854772913341   -0.905528000000
CL    7.077006420529    1.526960857854    0.000000000000
