14

 C   -3.410698465232   -0.240349626171    0.000000000000
 N   -2.781944465232    0.949288373829    0.000000000000
 H   -3.301291465232    1.817501373829    0.000000000000
 H   -1.771955465232    1.008467373829    0.000000000000
 N   -4.752918465232   -0.281241626171    0.000000000000
 H   -5.300960465232    0.569492373829    0.000000000000
 H   -5.250522465232   -1.161664626171    0.000000000000
 N   -2.709975465232   -1.378047626171    0.000000000000
 H   -1.698688465232   -1.309646626171    0.000000000000
 C   -3.325425465232   -2.711534626171    0.000000000000
 H   -2.518019465232   -3.451745626171    0.000000000000
 H   -3.933294465232   -2.858524626171    0.905528000000
 H   -3.933294465232   -2.858524626171   -0.905528000000
CL    7.212634700987    1.534907821642    0.000000000000
