14

 C   -3.442713104628   -0.242225482586    0.000000000000
 N   -2.813959104628    0.947412517414    0.000000000000
 H   -3.333306104628    1.815625517414    0.000000000000
 H   -1.803970104628    1.006591517414    0.000000000000
 N   -4.784933104628   -0.283117482586    0.000000000000
 H   -5.332975104628    0.567616517414    0.000000000000
 H   -5.282537104628   -1.163540482586    0.000000000000
 N   -2.741990104628   -1.379923482586    0.000000000000
 H   -1.730703104628   -1.311522482586    0.000000000000
 C   -3.357440104628   -2.713410482586    0.000000000000
 H   -2.550034104628   -3.453621482586    0.000000000000
 H   -3.965309104628   -2.860400482586    0.905528000000
 H   -3.965309104628   -2.860400482586   -0.905528000000
CL    7.280448841215    1.538881303536    0.000000000000
