14

 C   -3.474727744024   -0.244101339002    0.000000000000
 N   -2.845973744024    0.945536660998    0.000000000000
 H   -3.365320744024    1.813749660998    0.000000000000
 H   -1.835984744024    1.004715660998    0.000000000000
 N   -4.816947744024   -0.284993339002    0.000000000000
 H   -5.364989744024    0.565740660998    0.000000000000
 H   -5.314551744024   -1.165416339002    0.000000000000
 N   -2.774004744024   -1.381799339002    0.000000000000
 H   -1.762717744024   -1.313398339002    0.000000000000
 C   -3.389454744024   -2.715286339002    0.000000000000
 H   -2.582048744024   -3.455497339002    0.000000000000
 H   -3.997323744024   -2.862276339002    0.905528000000
 H   -3.997323744024   -2.862276339002   -0.905528000000
CL    7.348262981444    1.542854785430    0.000000000000
