14

 C   -3.538757022816   -0.247853051832    0.000000000000
 N   -2.910003022816    0.941784948168    0.000000000000
 H   -3.429350022816    1.809997948168    0.000000000000
 H   -1.900014022816    1.000963948168    0.000000000000
 N   -4.880977022816   -0.288745051832    0.000000000000
 H   -5.429019022816    0.561988948168    0.000000000000
 H   -5.378581022816   -1.169168051832    0.000000000000
 N   -2.838034022816   -1.385551051832    0.000000000000
 H   -1.826747022816   -1.317150051832    0.000000000000
 C   -3.453484022816   -2.719038051832    0.000000000000
 H   -2.646078022816   -3.459249051832    0.000000000000
 H   -4.061353022816   -2.866028051832    0.905528000000
 H   -4.061353022816   -2.866028051832   -0.905528000000
CL    7.483891261901    1.550801749218    0.000000000000
