14

 C   -3.570771662212   -0.249728908247    0.000000000000
 N   -2.942017662212    0.939909091753    0.000000000000
 H   -3.461364662212    1.808122091753    0.000000000000
 H   -1.932028662212    0.999088091753    0.000000000000
 N   -4.912991662212   -0.290620908247    0.000000000000
 H   -5.461033662212    0.560113091753    0.000000000000
 H   -5.410595662212   -1.171043908247    0.000000000000
 N   -2.870048662212   -1.387426908247    0.000000000000
 H   -1.858761662212   -1.319025908247    0.000000000000
 C   -3.485498662212   -2.720913908247    0.000000000000
 H   -2.678092662212   -3.461124908247    0.000000000000
 H   -4.093367662212   -2.867903908247    0.905528000000
 H   -4.093367662212   -2.867903908247   -0.905528000000
CL    7.551705402130    1.554775231112    0.000000000000
