14

 C   -3.634800941003   -0.253480621077    0.000000000000
 N   -3.006046941003    0.936157378923    0.000000000000
 H   -3.525393941003    1.804370378923    0.000000000000
 H   -1.996057941003    0.995336378923    0.000000000000
 N   -4.977020941003   -0.294372621077    0.000000000000
 H   -5.525062941003    0.556361378923    0.000000000000
 H   -5.474624941003   -1.174795621077    0.000000000000
 N   -2.934077941003   -1.391178621077    0.000000000000
 H   -1.922790941003   -1.322777621077    0.000000000000
 C   -3.549527941003   -2.724665621077    0.000000000000
 H   -2.742121941003   -3.464876621077    0.000000000000
 H   -4.157396941003   -2.871655621077    0.905528000000
 H   -4.157396941003   -2.871655621077   -0.905528000000
CL    7.687333682587    1.562722194900    0.000000000000
