14

 C   -3.698830219795   -0.257232333907    0.000000000000
 N   -3.070076219795    0.932405666093    0.000000000000
 H   -3.589423219795    1.800618666093    0.000000000000
 H   -2.060087219795    0.991584666093    0.000000000000
 N   -5.041050219795   -0.298124333907    0.000000000000
 H   -5.589092219795    0.552609666093    0.000000000000
 H   -5.538654219795   -1.178547333907    0.000000000000
 N   -2.998107219795   -1.394930333907    0.000000000000
 H   -1.986820219795   -1.326529333907    0.000000000000
 C   -3.613557219795   -2.728417333907    0.000000000000
 H   -2.806151219795   -3.468628333907    0.000000000000
 H   -4.221426219795   -2.875407333907    0.905528000000
 H   -4.221426219795   -2.875407333907   -0.905528000000
CL    7.822961963045    1.570669158688    0.000000000000
