19

 H   -0.903650000000    1.362990000000   -3.760627456720
 H   -0.000000000000    2.326790000000   -2.549617456720
 H    0.903650000000    1.362990000000   -3.760627456720
 C   -0.000000000000    1.400460000000   -3.138687456720
 S    0.000000000000    0.000000000000   -1.980117456720
 C    0.000000000000   -1.400460000000   -3.138687456720
 H    0.903650000000   -1.362990000000   -3.760627456720
 H    0.000000000000   -2.326790000000   -2.549617456720
 H   -0.903650000000   -1.362990000000   -3.760627456720
NA    0.000000000000    0.000000000000    0.715052543280
 S    0.000000000000    0.000000000000    1.715052543280
 C    0.000000000000   -1.400463393532    2.873628971393
 H    0.903648791035   -1.362989528631    3.495566419059
 H    0.000000000000   -2.326794900308    2.284554347552
 H   -0.903648791035   -1.362989528631    3.495566419059
 C    0.000000000000    1.400463393532    2.873628971393
 H   -0.903648791035    1.362989528631    3.495566419059
 H    0.000000000000    2.326794900308    2.284554347552
 H    0.903648791035    1.362989528631    3.495566419059
