19

 H   -0.903650000000    1.362990000000   -3.887172946005
 H   -0.000000000000    2.326790000000   -2.676162946005
 H    0.903650000000    1.362990000000   -3.887172946005
 C   -0.000000000000    1.400460000000   -3.265232946005
 S    0.000000000000    0.000000000000   -2.106662946005
 C    0.000000000000   -1.400460000000   -3.265232946005
 H    0.903650000000   -1.362990000000   -3.887172946005
 H    0.000000000000   -2.326790000000   -2.676162946005
 H   -0.903650000000   -1.362990000000   -3.887172946005
NA    0.000000000000    0.000000000000    0.588507053995
 S    0.000000000000    0.000000000000    1.888507053995
 C    0.000000000000   -1.400463393532    3.047083482107
 H    0.903648791035   -1.362989528631    3.669020929774
 H    0.000000000000   -2.326794900308    2.458008858267
 H   -0.903648791035   -1.362989528631    3.669020929774
 C    0.000000000000    1.400463393532    3.047083482107
 H   -0.903648791035    1.362989528631    3.669020929774
 H    0.000000000000    2.326794900308    2.458008858267
 H    0.903648791035    1.362989528631    3.669020929774
