19

 H   -0.903650000000    1.362990000000   -4.140263924576
 H   -0.000000000000    2.326790000000   -2.929253924576
 H    0.903650000000    1.362990000000   -4.140263924576
 C   -0.000000000000    1.400460000000   -3.518323924576
 S    0.000000000000    0.000000000000   -2.359753924576
 C    0.000000000000   -1.400460000000   -3.518323924576
 H    0.903650000000   -1.362990000000   -4.140263924576
 H    0.000000000000   -2.326790000000   -2.929253924576
 H   -0.903650000000   -1.362990000000   -4.140263924576
NA    0.000000000000    0.000000000000    0.335416075424
 S    0.000000000000    0.000000000000    2.235416075424
 C    0.000000000000   -1.400463393532    3.393992503536
 H    0.903648791035   -1.362989528631    4.015929951203
 H    0.000000000000   -2.326794900308    2.804917879696
 H   -0.903648791035   -1.362989528631    4.015929951203
 C    0.000000000000    1.400463393532    3.393992503536
 H   -0.903648791035    1.362989528631    4.015929951203
 H    0.000000000000    2.326794900308    2.804917879696
 H    0.903648791035    1.362989528631    4.015929951203
