19

 H   -0.903650000000    1.362990000000   -4.182445754338
 H   -0.000000000000    2.326790000000   -2.971435754338
 H    0.903650000000    1.362990000000   -4.182445754338
 C   -0.000000000000    1.400460000000   -3.560505754338
 S    0.000000000000    0.000000000000   -2.401935754338
 C    0.000000000000   -1.400460000000   -3.560505754338
 H    0.903650000000   -1.362990000000   -4.182445754338
 H    0.000000000000   -2.326790000000   -2.971435754338
 H   -0.903650000000   -1.362990000000   -4.182445754338
NA    0.000000000000    0.000000000000    0.293234245662
 S    0.000000000000    0.000000000000    2.293234245662
 C    0.000000000000   -1.400463393532    3.451810673775
 H    0.903648791035   -1.362989528631    4.073748121441
 H    0.000000000000   -2.326794900308    2.862736049934
 H   -0.903648791035   -1.362989528631    4.073748121441
 C    0.000000000000    1.400463393532    3.451810673775
 H   -0.903648791035    1.362989528631    4.073748121441
 H    0.000000000000    2.326794900308    2.862736049934
 H    0.903648791035    1.362989528631    4.073748121441
