19

 H   -0.903650000000    1.362990000000   -4.351173073385
 H   -0.000000000000    2.326790000000   -3.140163073385
 H    0.903650000000    1.362990000000   -4.351173073385
 C   -0.000000000000    1.400460000000   -3.729233073385
 S    0.000000000000    0.000000000000   -2.570663073385
 C    0.000000000000   -1.400460000000   -3.729233073385
 H    0.903650000000   -1.362990000000   -4.351173073385
 H    0.000000000000   -2.326790000000   -3.140163073385
 H   -0.903650000000   -1.362990000000   -4.351173073385
NA    0.000000000000    0.000000000000    0.124506926615
 S    0.000000000000    0.000000000000    2.524506926615
 C    0.000000000000   -1.400463393532    3.683083354727
 H    0.903648791035   -1.362989528631    4.305020802394
 H    0.000000000000   -2.326794900308    3.094008730887
 H   -0.903648791035   -1.362989528631    4.305020802394
 C    0.000000000000    1.400463393532    3.683083354727
 H   -0.903648791035    1.362989528631    4.305020802394
 H    0.000000000000    2.326794900308    3.094008730887
 H    0.903648791035    1.362989528631    4.305020802394
