19

 H   -0.903650000000    1.362990000000   -4.393354903147
 H   -0.000000000000    2.326790000000   -3.182344903147
 H    0.903650000000    1.362990000000   -4.393354903147
 C   -0.000000000000    1.400460000000   -3.771414903147
 S    0.000000000000    0.000000000000   -2.612844903147
 C    0.000000000000   -1.400460000000   -3.771414903147
 H    0.903650000000   -1.362990000000   -4.393354903147
 H    0.000000000000   -2.326790000000   -3.182344903147
 H   -0.903650000000   -1.362990000000   -4.393354903147
NA    0.000000000000    0.000000000000    0.082325096853
 S    0.000000000000    0.000000000000    2.582325096853
 C    0.000000000000   -1.400463393532    3.740901524966
 H    0.903648791035   -1.362989528631    4.362838972632
 H    0.000000000000   -2.326794900308    3.151826901125
 H   -0.903648791035   -1.362989528631    4.362838972632
 C    0.000000000000    1.400463393532    3.740901524966
 H   -0.903648791035    1.362989528631    4.362838972632
 H    0.000000000000    2.326794900308    3.151826901125
 H    0.903648791035    1.362989528631    4.362838972632
