19

 H   -0.903650000000    1.362990000000   -4.604264051956
 H   -0.000000000000    2.326790000000   -3.393254051956
 H    0.903650000000    1.362990000000   -4.604264051956
 C   -0.000000000000    1.400460000000   -3.982324051956
 S    0.000000000000    0.000000000000   -2.823754051956
 C    0.000000000000   -1.400460000000   -3.982324051956
 H    0.903650000000   -1.362990000000   -4.604264051956
 H    0.000000000000   -2.326790000000   -3.393254051956
 H   -0.903650000000   -1.362990000000   -4.604264051956
NA    0.000000000000    0.000000000000   -0.128584051956
 S    0.000000000000    0.000000000000    2.871415948044
 C    0.000000000000   -1.400463393532    4.029992376156
 H    0.903648791035   -1.362989528631    4.651929823823
 H    0.000000000000   -2.326794900308    3.440917752316
 H   -0.903648791035   -1.362989528631    4.651929823823
 C    0.000000000000    1.400463393532    4.029992376156
 H   -0.903648791035    1.362989528631    4.651929823823
 H    0.000000000000    2.326794900308    3.440917752316
 H    0.903648791035    1.362989528631    4.651929823823
