19

 H   -0.903650000000    1.362990000000   -4.646445881718
 H   -0.000000000000    2.326790000000   -3.435435881718
 H    0.903650000000    1.362990000000   -4.646445881718
 C   -0.000000000000    1.400460000000   -4.024505881718
 S    0.000000000000    0.000000000000   -2.865935881718
 C    0.000000000000   -1.400460000000   -4.024505881718
 H    0.903650000000   -1.362990000000   -4.646445881718
 H    0.000000000000   -2.326790000000   -3.435435881718
 H   -0.903650000000   -1.362990000000   -4.646445881718
NA    0.000000000000    0.000000000000   -0.170765881718
 S    0.000000000000    0.000000000000    2.929234118282
 C    0.000000000000   -1.400463393532    4.087810546395
 H    0.903648791035   -1.362989528631    4.709747994061
 H    0.000000000000   -2.326794900308    3.498735922554
 H   -0.903648791035   -1.362989528631    4.709747994061
 C    0.000000000000    1.400463393532    4.087810546395
 H   -0.903648791035    1.362989528631    4.709747994061
 H    0.000000000000    2.326794900308    3.498735922554
 H    0.903648791035    1.362989528631    4.709747994061
