19

 H   -0.903650000000    1.362990000000   -4.815173200765
 H   -0.000000000000    2.326790000000   -3.604163200765
 H    0.903650000000    1.362990000000   -4.815173200765
 C   -0.000000000000    1.400460000000   -4.193233200765
 S    0.000000000000    0.000000000000   -3.034663200765
 C    0.000000000000   -1.400460000000   -4.193233200765
 H    0.903650000000   -1.362990000000   -4.815173200765
 H    0.000000000000   -2.326790000000   -3.604163200765
 H   -0.903650000000   -1.362990000000   -4.815173200765
NA    0.000000000000    0.000000000000   -0.339493200765
 S    0.000000000000    0.000000000000    3.160506799235
 C    0.000000000000   -1.400463393532    4.319083227347
 H    0.903648791035   -1.362989528631    4.941020675014
 H    0.000000000000   -2.326794900308    3.730008603507
 H   -0.903648791035   -1.362989528631    4.941020675014
 C    0.000000000000    1.400463393532    4.319083227347
 H   -0.903648791035    1.362989528631    4.941020675014
 H    0.000000000000    2.326794900308    3.730008603507
 H    0.903648791035    1.362989528631    4.941020675014
