19

 H   -0.903650000000    1.362990000000   -4.857355030527
 H   -0.000000000000    2.326790000000   -3.646345030527
 H    0.903650000000    1.362990000000   -4.857355030527
 C   -0.000000000000    1.400460000000   -4.235415030527
 S    0.000000000000    0.000000000000   -3.076845030527
 C    0.000000000000   -1.400460000000   -4.235415030527
 H    0.903650000000   -1.362990000000   -4.857355030527
 H    0.000000000000   -2.326790000000   -3.646345030527
 H   -0.903650000000   -1.362990000000   -4.857355030527
NA    0.000000000000    0.000000000000   -0.381675030527
 S    0.000000000000    0.000000000000    3.218324969473
 C    0.000000000000   -1.400463393532    4.376901397586
 H    0.903648791035   -1.362989528631    4.998838845252
 H    0.000000000000   -2.326794900308    3.787826773745
 H   -0.903648791035   -1.362989528631    4.998838845252
 C    0.000000000000    1.400463393532    4.376901397586
 H   -0.903648791035    1.362989528631    4.998838845252
 H    0.000000000000    2.326794900308    3.787826773745
 H    0.903648791035    1.362989528631    4.998838845252
