19

 H   -0.903650000000    1.362990000000   -4.983900519812
 H   -0.000000000000    2.326790000000   -3.772890519812
 H    0.903650000000    1.362990000000   -4.983900519812
 C   -0.000000000000    1.400460000000   -4.361960519812
 S    0.000000000000    0.000000000000   -3.203390519812
 C    0.000000000000   -1.400460000000   -4.361960519812
 H    0.903650000000   -1.362990000000   -4.983900519812
 H    0.000000000000   -2.326790000000   -3.772890519812
 H   -0.903650000000   -1.362990000000   -4.983900519812
NA    0.000000000000    0.000000000000   -0.508220519812
 S    0.000000000000    0.000000000000    3.391779480188
 C    0.000000000000   -1.400463393532    4.550355908300
 H    0.903648791035   -1.362989528631    5.172293355967
 H    0.000000000000   -2.326794900308    3.961281284459
 H   -0.903648791035   -1.362989528631    5.172293355967
 C    0.000000000000    1.400463393532    4.550355908300
 H   -0.903648791035    1.362989528631    5.172293355967
 H    0.000000000000    2.326794900308    3.961281284459
 H    0.903648791035    1.362989528631    5.172293355967
