19

 H   -0.903650000000    1.362990000000   -5.026082349574
 H   -0.000000000000    2.326790000000   -3.815072349574
 H    0.903650000000    1.362990000000   -5.026082349574
 C   -0.000000000000    1.400460000000   -4.404142349574
 S    0.000000000000    0.000000000000   -3.245572349574
 C    0.000000000000   -1.400460000000   -4.404142349574
 H    0.903650000000   -1.362990000000   -5.026082349574
 H    0.000000000000   -2.326790000000   -3.815072349574
 H   -0.903650000000   -1.362990000000   -5.026082349574
NA    0.000000000000    0.000000000000   -0.550402349574
 S    0.000000000000    0.000000000000    3.449597650426
 C    0.000000000000   -1.400463393532    4.608174078538
 H    0.903648791035   -1.362989528631    5.230111526205
 H    0.000000000000   -2.326794900308    4.019099454698
 H   -0.903648791035   -1.362989528631    5.230111526205
 C    0.000000000000    1.400463393532    4.608174078538
 H   -0.903648791035    1.362989528631    5.230111526205
 H    0.000000000000    2.326794900308    4.019099454698
 H    0.903648791035    1.362989528631    5.230111526205
