19

 H   -0.903650000000    1.362990000000   -5.068264179336
 H   -0.000000000000    2.326790000000   -3.857254179336
 H    0.903650000000    1.362990000000   -5.068264179336
 C   -0.000000000000    1.400460000000   -4.446324179336
 S    0.000000000000    0.000000000000   -3.287754179336
 C    0.000000000000   -1.400460000000   -4.446324179336
 H    0.903650000000   -1.362990000000   -5.068264179336
 H    0.000000000000   -2.326790000000   -3.857254179336
 H   -0.903650000000   -1.362990000000   -5.068264179336
NA    0.000000000000    0.000000000000   -0.592584179336
 S    0.000000000000    0.000000000000    3.507415820664
 C    0.000000000000   -1.400463393532    4.665992248776
 H    0.903648791035   -1.362989528631    5.287929696443
 H    0.000000000000   -2.326794900308    4.076917624936
 H   -0.903648791035   -1.362989528631    5.287929696443
 C    0.000000000000    1.400463393532    4.665992248776
 H   -0.903648791035    1.362989528631    5.287929696443
 H    0.000000000000    2.326794900308    4.076917624936
 H    0.903648791035    1.362989528631    5.287929696443
