19

 H   -0.903650000000    1.362990000000   -5.194809668622
 H   -0.000000000000    2.326790000000   -3.983799668622
 H    0.903650000000    1.362990000000   -5.194809668622
 C   -0.000000000000    1.400460000000   -4.572869668622
 S    0.000000000000    0.000000000000   -3.414299668622
 C    0.000000000000   -1.400460000000   -4.572869668622
 H    0.903650000000   -1.362990000000   -5.194809668622
 H    0.000000000000   -2.326790000000   -3.983799668622
 H   -0.903650000000   -1.362990000000   -5.194809668622
NA    0.000000000000    0.000000000000   -0.719129668622
 S    0.000000000000    0.000000000000    3.680870331378
 C    0.000000000000   -1.400463393532    4.839446759491
 H    0.903648791035   -1.362989528631    5.461384207157
 H    0.000000000000   -2.326794900308    4.250372135650
 H   -0.903648791035   -1.362989528631    5.461384207157
 C    0.000000000000    1.400463393532    4.839446759491
 H   -0.903648791035    1.362989528631    5.461384207157
 H    0.000000000000    2.326794900308    4.250372135650
 H    0.903648791035    1.362989528631    5.461384207157
