19

 H   -0.903650000000    1.362990000000   -5.363536987669
 H   -0.000000000000    2.326790000000   -4.152526987669
 H    0.903650000000    1.362990000000   -5.363536987669
 C   -0.000000000000    1.400460000000   -4.741596987669
 S    0.000000000000    0.000000000000   -3.583026987669
 C    0.000000000000   -1.400460000000   -4.741596987669
 H    0.903650000000   -1.362990000000   -5.363536987669
 H    0.000000000000   -2.326790000000   -4.152526987669
 H   -0.903650000000   -1.362990000000   -5.363536987669
NA    0.000000000000    0.000000000000   -0.887856987669
 S    0.000000000000    0.000000000000    3.912143012331
 C    0.000000000000   -1.400463393532    5.070719440444
 H    0.903648791035   -1.362989528631    5.692656888110
 H    0.000000000000   -2.326794900308    4.481644816603
 H   -0.903648791035   -1.362989528631    5.692656888110
 C    0.000000000000    1.400463393532    5.070719440444
 H   -0.903648791035    1.362989528631    5.692656888110
 H    0.000000000000    2.326794900308    4.481644816603
 H    0.903648791035    1.362989528631    5.692656888110
