19

 H   -0.903650000000    1.362990000000   -5.532264306716
 H   -0.000000000000    2.326790000000   -4.321254306716
 H    0.903650000000    1.362990000000   -5.532264306716
 C   -0.000000000000    1.400460000000   -4.910324306716
 S    0.000000000000    0.000000000000   -3.751754306716
 C    0.000000000000   -1.400460000000   -4.910324306716
 H    0.903650000000   -1.362990000000   -5.532264306716
 H    0.000000000000   -2.326790000000   -4.321254306716
 H   -0.903650000000   -1.362990000000   -5.532264306716
NA    0.000000000000    0.000000000000   -1.056584306716
 S    0.000000000000    0.000000000000    4.143415693284
 C    0.000000000000   -1.400463393532    5.301992121396
 H    0.903648791035   -1.362989528631    5.923929569063
 H    0.000000000000   -2.326794900308    4.712917497556
 H   -0.903648791035   -1.362989528631    5.923929569063
 C    0.000000000000    1.400463393532    5.301992121396
 H   -0.903648791035    1.362989528631    5.923929569063
 H    0.000000000000    2.326794900308    4.712917497556
 H    0.903648791035    1.362989528631    5.923929569063
