19

 H   -0.903650000000    1.362990000000   -5.574446136478
 H   -0.000000000000    2.326790000000   -4.363436136478
 H    0.903650000000    1.362990000000   -5.574446136478
 C   -0.000000000000    1.400460000000   -4.952506136478
 S    0.000000000000    0.000000000000   -3.793936136478
 C    0.000000000000   -1.400460000000   -4.952506136478
 H    0.903650000000   -1.362990000000   -5.574446136478
 H    0.000000000000   -2.326790000000   -4.363436136478
 H   -0.903650000000   -1.362990000000   -5.574446136478
NA    0.000000000000    0.000000000000   -1.098766136478
 S    0.000000000000    0.000000000000    4.201233863522
 C    0.000000000000   -1.400463393532    5.359810291635
 H    0.903648791035   -1.362989528631    5.981747739301
 H    0.000000000000   -2.326794900308    4.770735667794
 H   -0.903648791035   -1.362989528631    5.981747739301
 C    0.000000000000    1.400463393532    5.359810291635
 H   -0.903648791035    1.362989528631    5.981747739301
 H    0.000000000000    2.326794900308    4.770735667794
 H    0.903648791035    1.362989528631    5.981747739301
