19

 H   -0.903650000000    1.362990000000   -5.658809796002
 H   -0.000000000000    2.326790000000   -4.447799796002
 H    0.903650000000    1.362990000000   -5.658809796002
 C   -0.000000000000    1.400460000000   -5.036869796002
 S    0.000000000000    0.000000000000   -3.878299796002
 C    0.000000000000   -1.400460000000   -5.036869796002
 H    0.903650000000   -1.362990000000   -5.658809796002
 H    0.000000000000   -2.326790000000   -4.447799796002
 H   -0.903650000000   -1.362990000000   -5.658809796002
NA    0.000000000000    0.000000000000   -1.183129796002
 S    0.000000000000    0.000000000000    4.316870203998
 C    0.000000000000   -1.400463393532    5.475446632111
 H    0.903648791035   -1.362989528631    6.097384079777
 H    0.000000000000   -2.326794900308    4.886372008270
 H   -0.903648791035   -1.362989528631    6.097384079777
 C    0.000000000000    1.400463393532    5.475446632111
 H   -0.903648791035    1.362989528631    6.097384079777
 H    0.000000000000    2.326794900308    4.886372008270
 H    0.903648791035    1.362989528631    6.097384079777
