19

 H   -0.903650000000    1.362990000000   -5.700991625763
 H   -0.000000000000    2.326790000000   -4.489981625763
 H    0.903650000000    1.362990000000   -5.700991625763
 C   -0.000000000000    1.400460000000   -5.079051625763
 S    0.000000000000    0.000000000000   -3.920481625763
 C    0.000000000000   -1.400460000000   -5.079051625763
 H    0.903650000000   -1.362990000000   -5.700991625763
 H    0.000000000000   -2.326790000000   -4.489981625763
 H   -0.903650000000   -1.362990000000   -5.700991625763
NA    0.000000000000    0.000000000000   -1.225311625763
 S    0.000000000000    0.000000000000    4.374688374237
 C    0.000000000000   -1.400463393532    5.533264802349
 H    0.903648791035   -1.362989528631    6.155202250016
 H    0.000000000000   -2.326794900308    4.944190178508
 H   -0.903648791035   -1.362989528631    6.155202250016
 C    0.000000000000    1.400463393532    5.533264802349
 H   -0.903648791035    1.362989528631    6.155202250016
 H    0.000000000000    2.326794900308    4.944190178508
 H    0.903648791035    1.362989528631    6.155202250016
