19

 H   -0.903650000000    1.362990000000   -5.827537115049
 H   -0.000000000000    2.326790000000   -4.616527115049
 H    0.903650000000    1.362990000000   -5.827537115049
 C   -0.000000000000    1.400460000000   -5.205597115049
 S    0.000000000000    0.000000000000   -4.047027115049
 C    0.000000000000   -1.400460000000   -5.205597115049
 H    0.903650000000   -1.362990000000   -5.827537115049
 H    0.000000000000   -2.326790000000   -4.616527115049
 H   -0.903650000000   -1.362990000000   -5.827537115049
NA    0.000000000000    0.000000000000   -1.351857115049
 S    0.000000000000    0.000000000000    4.548142884951
 C    0.000000000000   -1.400463393532    5.706719313064
 H    0.903648791035   -1.362989528631    6.328656760730
 H    0.000000000000   -2.326794900308    5.117644689223
 H   -0.903648791035   -1.362989528631    6.328656760730
 C    0.000000000000    1.400463393532    5.706719313064
 H   -0.903648791035    1.362989528631    6.328656760730
 H    0.000000000000    2.326794900308    5.117644689223
 H    0.903648791035    1.362989528631    6.328656760730
