19

 H   -0.903650000000    1.362990000000   -5.869718944811
 H   -0.000000000000    2.326790000000   -4.658708944811
 H    0.903650000000    1.362990000000   -5.869718944811
 C   -0.000000000000    1.400460000000   -5.247778944811
 S    0.000000000000    0.000000000000   -4.089208944811
 C    0.000000000000   -1.400460000000   -5.247778944811
 H    0.903650000000   -1.362990000000   -5.869718944811
 H    0.000000000000   -2.326790000000   -4.658708944811
 H   -0.903650000000   -1.362990000000   -5.869718944811
NA    0.000000000000    0.000000000000   -1.394038944811
 S    0.000000000000    0.000000000000    4.605961055189
 C    0.000000000000   -1.400463393532    5.764537483302
 H    0.903648791035   -1.362989528631    6.386474930968
 H    0.000000000000   -2.326794900308    5.175462859461
 H   -0.903648791035   -1.362989528631    6.386474930968
 C    0.000000000000    1.400463393532    5.764537483302
 H   -0.903648791035    1.362989528631    6.386474930968
 H    0.000000000000    2.326794900308    5.175462859461
 H    0.903648791035    1.362989528631    6.386474930968
