19

 H   -0.903650000000    1.362990000000   -6.164991753143
 H   -0.000000000000    2.326790000000   -4.953981753143
 H    0.903650000000    1.362990000000   -6.164991753143
 C   -0.000000000000    1.400460000000   -5.543051753143
 S    0.000000000000    0.000000000000   -4.384481753143
 C    0.000000000000   -1.400460000000   -5.543051753143
 H    0.903650000000   -1.362990000000   -6.164991753143
 H    0.000000000000   -2.326790000000   -4.953981753143
 H   -0.903650000000   -1.362990000000   -6.164991753143
NA    0.000000000000    0.000000000000   -1.689311753143
 S    0.000000000000    0.000000000000    5.010688246857
 C    0.000000000000   -1.400463393532    6.169264674969
 H    0.903648791035   -1.362989528631    6.791202122636
 H    0.000000000000   -2.326794900308    5.580190051128
 H   -0.903648791035   -1.362989528631    6.791202122636
 C    0.000000000000    1.400463393532    6.169264674969
 H   -0.903648791035    1.362989528631    6.791202122636
 H    0.000000000000    2.326794900308    5.580190051128
 H    0.903648791035    1.362989528631    6.791202122636
