19

 H   -0.903650000000    1.362990000000   -6.249355412667
 H   -0.000000000000    2.326790000000   -5.038345412667
 H    0.903650000000    1.362990000000   -6.249355412667
 C   -0.000000000000    1.400460000000   -5.627415412667
 S    0.000000000000    0.000000000000   -4.468845412667
 C    0.000000000000   -1.400460000000   -5.627415412667
 H    0.903650000000   -1.362990000000   -6.249355412667
 H    0.000000000000   -2.326790000000   -5.038345412667
 H   -0.903650000000   -1.362990000000   -6.249355412667
NA    0.000000000000    0.000000000000   -1.773675412667
 S    0.000000000000    0.000000000000    5.126324587333
 C    0.000000000000   -1.400463393532    6.284901015445
 H    0.903648791035   -1.362989528631    6.906838463112
 H    0.000000000000   -2.326794900308    5.695826391605
 H   -0.903648791035   -1.362989528631    6.906838463112
 C    0.000000000000    1.400463393532    6.284901015445
 H   -0.903648791035    1.362989528631    6.906838463112
 H    0.000000000000    2.326794900308    5.695826391605
 H    0.903648791035    1.362989528631    6.906838463112
