19

 H   -0.903650000000    1.362990000000   -6.291537242429
 H   -0.000000000000    2.326790000000   -5.080527242429
 H    0.903650000000    1.362990000000   -6.291537242429
 C   -0.000000000000    1.400460000000   -5.669597242429
 S    0.000000000000    0.000000000000   -4.511027242429
 C    0.000000000000   -1.400460000000   -5.669597242429
 H    0.903650000000   -1.362990000000   -6.291537242429
 H    0.000000000000   -2.326790000000   -5.080527242429
 H   -0.903650000000   -1.362990000000   -6.291537242429
NA    0.000000000000    0.000000000000   -1.815857242429
 S    0.000000000000    0.000000000000    5.184142757571
 C    0.000000000000   -1.400463393532    6.342719185684
 H    0.903648791035   -1.362989528631    6.964656633350
 H    0.000000000000   -2.326794900308    5.753644561843
 H   -0.903648791035   -1.362989528631    6.964656633350
 C    0.000000000000    1.400463393532    6.342719185684
 H   -0.903648791035    1.362989528631    6.964656633350
 H    0.000000000000    2.326794900308    5.753644561843
 H    0.903648791035    1.362989528631    6.964656633350
