19

 H   -0.903650000000    1.362990000000   -6.333719072191
 H   -0.000000000000    2.326790000000   -5.122709072191
 H    0.903650000000    1.362990000000   -6.333719072191
 C   -0.000000000000    1.400460000000   -5.711779072191
 S    0.000000000000    0.000000000000   -4.553209072191
 C    0.000000000000   -1.400460000000   -5.711779072191
 H    0.903650000000   -1.362990000000   -6.333719072191
 H    0.000000000000   -2.326790000000   -5.122709072191
 H   -0.903650000000   -1.362990000000   -6.333719072191
NA    0.000000000000    0.000000000000   -1.858039072191
 S    0.000000000000    0.000000000000    5.241960927809
 C    0.000000000000   -1.400463393532    6.400537355922
 H    0.903648791035   -1.362989528631    7.022474803588
 H    0.000000000000   -2.326794900308    5.811462732081
 H   -0.903648791035   -1.362989528631    7.022474803588
 C    0.000000000000    1.400463393532    6.400537355922
 H   -0.903648791035    1.362989528631    7.022474803588
 H    0.000000000000    2.326794900308    5.811462732081
 H    0.903648791035    1.362989528631    7.022474803588
