19

 H   -0.903650000000    1.362990000000   -6.375900901953
 H   -0.000000000000    2.326790000000   -5.164890901953
 H    0.903650000000    1.362990000000   -6.375900901953
 C   -0.000000000000    1.400460000000   -5.753960901953
 S    0.000000000000    0.000000000000   -4.595390901953
 C    0.000000000000   -1.400460000000   -5.753960901953
 H    0.903650000000   -1.362990000000   -6.375900901953
 H    0.000000000000   -2.326790000000   -5.164890901953
 H   -0.903650000000   -1.362990000000   -6.375900901953
NA    0.000000000000    0.000000000000   -1.900220901953
 S    0.000000000000    0.000000000000    5.299779098047
 C    0.000000000000   -1.400463393532    6.458355526160
 H    0.903648791035   -1.362989528631    7.080292973826
 H    0.000000000000   -2.326794900308    5.869280902319
 H   -0.903648791035   -1.362989528631    7.080292973826
 C    0.000000000000    1.400463393532    6.458355526160
 H   -0.903648791035    1.362989528631    7.080292973826
 H    0.000000000000    2.326794900308    5.869280902319
 H    0.903648791035    1.362989528631    7.080292973826
