19

 H   -0.903650000000    1.362990000000   -6.418082731714
 H   -0.000000000000    2.326790000000   -5.207072731714
 H    0.903650000000    1.362990000000   -6.418082731714
 C   -0.000000000000    1.400460000000   -5.796142731714
 S    0.000000000000    0.000000000000   -4.637572731714
 C    0.000000000000   -1.400460000000   -5.796142731714
 H    0.903650000000   -1.362990000000   -6.418082731714
 H    0.000000000000   -2.326790000000   -5.207072731714
 H   -0.903650000000   -1.362990000000   -6.418082731714
NA    0.000000000000    0.000000000000   -1.942402731714
 S    0.000000000000    0.000000000000    5.357597268286
 C    0.000000000000   -1.400463393532    6.516173696398
 H    0.903648791035   -1.362989528631    7.138111144065
 H    0.000000000000   -2.326794900308    5.927099072557
 H   -0.903648791035   -1.362989528631    7.138111144065
 C    0.000000000000    1.400463393532    6.516173696398
 H   -0.903648791035    1.362989528631    7.138111144065
 H    0.000000000000    2.326794900308    5.927099072557
 H    0.903648791035    1.362989528631    7.138111144065
