19

 H   -0.903650000000    1.362990000000   -6.628991880524
 H   -0.000000000000    2.326790000000   -5.417981880524
 H    0.903650000000    1.362990000000   -6.628991880524
 C   -0.000000000000    1.400460000000   -6.007051880524
 S    0.000000000000    0.000000000000   -4.848481880524
 C    0.000000000000   -1.400460000000   -6.007051880524
 H    0.903650000000   -1.362990000000   -6.628991880524
 H    0.000000000000   -2.326790000000   -5.417981880524
 H   -0.903650000000   -1.362990000000   -6.628991880524
NA    0.000000000000    0.000000000000   -2.153311880524
 S    0.000000000000    0.000000000000    5.646688119476
 C    0.000000000000   -1.400463393532    6.805264547589
 H    0.903648791035   -1.362989528631    7.427201995255
 H    0.000000000000   -2.326794900308    6.216189923748
 H   -0.903648791035   -1.362989528631    7.427201995255
 C    0.000000000000    1.400463393532    6.805264547589
 H   -0.903648791035    1.362989528631    7.427201995255
 H    0.000000000000    2.326794900308    6.216189923748
 H    0.903648791035    1.362989528631    7.427201995255
