19

 H   -0.903650000000    1.362990000000   -6.713355540047
 H   -0.000000000000    2.326790000000   -5.502345540047
 H    0.903650000000    1.362990000000   -6.713355540047
 C   -0.000000000000    1.400460000000   -6.091415540047
 S    0.000000000000    0.000000000000   -4.932845540047
 C    0.000000000000   -1.400460000000   -6.091415540047
 H    0.903650000000   -1.362990000000   -6.713355540047
 H    0.000000000000   -2.326790000000   -5.502345540047
 H   -0.903650000000   -1.362990000000   -6.713355540047
NA    0.000000000000    0.000000000000   -2.237675540047
 S    0.000000000000    0.000000000000    5.762324459953
 C    0.000000000000   -1.400463393532    6.920900888065
 H    0.903648791035   -1.362989528631    7.542838335732
 H    0.000000000000   -2.326794900308    6.331826264225
 H   -0.903648791035   -1.362989528631    7.542838335732
 C    0.000000000000    1.400463393532    6.920900888065
 H   -0.903648791035    1.362989528631    7.542838335732
 H    0.000000000000    2.326794900308    6.331826264225
 H    0.903648791035    1.362989528631    7.542838335732
