19

 H   -0.903650000000    1.362990000000   -6.755537369809
 H   -0.000000000000    2.326790000000   -5.544527369809
 H    0.903650000000    1.362990000000   -6.755537369809
 C   -0.000000000000    1.400460000000   -6.133597369809
 S    0.000000000000    0.000000000000   -4.975027369809
 C    0.000000000000   -1.400460000000   -6.133597369809
 H    0.903650000000   -1.362990000000   -6.755537369809
 H    0.000000000000   -2.326790000000   -5.544527369809
 H   -0.903650000000   -1.362990000000   -6.755537369809
NA    0.000000000000    0.000000000000   -2.279857369809
 S    0.000000000000    0.000000000000    5.820142630191
 C    0.000000000000   -1.400463393532    6.978719058303
 H    0.903648791035   -1.362989528631    7.600656505970
 H    0.000000000000   -2.326794900308    6.389644434463
 H   -0.903648791035   -1.362989528631    7.600656505970
 C    0.000000000000    1.400463393532    6.978719058303
 H   -0.903648791035    1.362989528631    7.600656505970
 H    0.000000000000    2.326794900308    6.389644434463
 H    0.903648791035    1.362989528631    7.600656505970
