19

 H   -0.903650000000    1.362990000000   -6.882082859094
 H   -0.000000000000    2.326790000000   -5.671072859094
 H    0.903650000000    1.362990000000   -6.882082859094
 C   -0.000000000000    1.400460000000   -6.260142859094
 S    0.000000000000    0.000000000000   -5.101572859094
 C    0.000000000000   -1.400460000000   -6.260142859094
 H    0.903650000000   -1.362990000000   -6.882082859094
 H    0.000000000000   -2.326790000000   -5.671072859094
 H   -0.903650000000   -1.362990000000   -6.882082859094
NA    0.000000000000    0.000000000000   -2.406402859094
 S    0.000000000000    0.000000000000    5.993597140906
 C    0.000000000000   -1.400463393532    7.152173569018
 H    0.903648791035   -1.362989528631    7.774111016685
 H    0.000000000000   -2.326794900308    6.563098945177
 H   -0.903648791035   -1.362989528631    7.774111016685
 C    0.000000000000    1.400463393532    7.152173569018
 H   -0.903648791035    1.362989528631    7.774111016685
 H    0.000000000000    2.326794900308    6.563098945177
 H    0.903648791035    1.362989528631    7.774111016685
