19

 H   -0.903650000000    1.362990000000   -6.966446518618
 H   -0.000000000000    2.326790000000   -5.755436518618
 H    0.903650000000    1.362990000000   -6.966446518618
 C   -0.000000000000    1.400460000000   -6.344506518618
 S    0.000000000000    0.000000000000   -5.185936518618
 C    0.000000000000   -1.400460000000   -6.344506518618
 H    0.903650000000   -1.362990000000   -6.966446518618
 H    0.000000000000   -2.326790000000   -5.755436518618
 H   -0.903650000000   -1.362990000000   -6.966446518618
NA    0.000000000000    0.000000000000   -2.490766518618
 S    0.000000000000    0.000000000000    6.109233481382
 C    0.000000000000   -1.400463393532    7.267809909494
 H    0.903648791035   -1.362989528631    7.889747357161
 H    0.000000000000   -2.326794900308    6.678735285654
 H   -0.903648791035   -1.362989528631    7.889747357161
 C    0.000000000000    1.400463393532    7.267809909494
 H   -0.903648791035    1.362989528631    7.889747357161
 H    0.000000000000    2.326794900308    6.678735285654
 H    0.903648791035    1.362989528631    7.889747357161
