19

 H   -0.903650000000    1.362990000000   -7.008628348380
 H   -0.000000000000    2.326790000000   -5.797618348380
 H    0.903650000000    1.362990000000   -7.008628348380
 C   -0.000000000000    1.400460000000   -6.386688348380
 S    0.000000000000    0.000000000000   -5.228118348380
 C    0.000000000000   -1.400460000000   -6.386688348380
 H    0.903650000000   -1.362990000000   -7.008628348380
 H    0.000000000000   -2.326790000000   -5.797618348380
 H   -0.903650000000   -1.362990000000   -7.008628348380
NA    0.000000000000    0.000000000000   -2.532948348380
 S    0.000000000000    0.000000000000    6.167051651620
 C    0.000000000000   -1.400463393532    7.325628079733
 H    0.903648791035   -1.362989528631    7.947565527399
 H    0.000000000000   -2.326794900308    6.736553455892
 H   -0.903648791035   -1.362989528631    7.947565527399
 C    0.000000000000    1.400463393532    7.325628079733
 H   -0.903648791035    1.362989528631    7.947565527399
 H    0.000000000000    2.326794900308    6.736553455892
 H    0.903648791035    1.362989528631    7.947565527399
