19

 H   -0.903650000000    1.362990000000   -7.092992007904
 H   -0.000000000000    2.326790000000   -5.881982007904
 H    0.903650000000    1.362990000000   -7.092992007904
 C   -0.000000000000    1.400460000000   -6.471052007904
 S    0.000000000000    0.000000000000   -5.312482007904
 C    0.000000000000   -1.400460000000   -6.471052007904
 H    0.903650000000   -1.362990000000   -7.092992007904
 H    0.000000000000   -2.326790000000   -5.881982007904
 H   -0.903650000000   -1.362990000000   -7.092992007904
NA    0.000000000000    0.000000000000   -2.617312007904
 S    0.000000000000    0.000000000000    6.282687992096
 C    0.000000000000   -1.400463393532    7.441264420209
 H    0.903648791035   -1.362989528631    8.063201867875
 H    0.000000000000   -2.326794900308    6.852189796368
 H   -0.903648791035   -1.362989528631    8.063201867875
 C    0.000000000000    1.400463393532    7.441264420209
 H   -0.903648791035    1.362989528631    8.063201867875
 H    0.000000000000    2.326794900308    6.852189796368
 H    0.903648791035    1.362989528631    8.063201867875
