19

 H   -0.903650000000    1.362990000000   -7.177355667427
 H   -0.000000000000    2.326790000000   -5.966345667427
 H    0.903650000000    1.362990000000   -7.177355667427
 C   -0.000000000000    1.400460000000   -6.555415667427
 S    0.000000000000    0.000000000000   -5.396845667427
 C    0.000000000000   -1.400460000000   -6.555415667427
 H    0.903650000000   -1.362990000000   -7.177355667427
 H    0.000000000000   -2.326790000000   -5.966345667427
 H   -0.903650000000   -1.362990000000   -7.177355667427
NA    0.000000000000    0.000000000000   -2.701675667427
 S    0.000000000000    0.000000000000    6.398324332573
 C    0.000000000000   -1.400463393532    7.556900760685
 H    0.903648791035   -1.362989528631    8.178838208352
 H    0.000000000000   -2.326794900308    6.967826136845
 H   -0.903648791035   -1.362989528631    8.178838208352
 C    0.000000000000    1.400463393532    7.556900760685
 H   -0.903648791035    1.362989528631    8.178838208352
 H    0.000000000000    2.326794900308    6.967826136845
 H    0.903648791035    1.362989528631    8.178838208352
