19

 H   -0.903650000000    1.362990000000   -7.303901156713
 H   -0.000000000000    2.326790000000   -6.092891156713
 H    0.903650000000    1.362990000000   -7.303901156713
 C   -0.000000000000    1.400460000000   -6.681961156713
 S    0.000000000000    0.000000000000   -5.523391156713
 C    0.000000000000   -1.400460000000   -6.681961156713
 H    0.903650000000   -1.362990000000   -7.303901156713
 H    0.000000000000   -2.326790000000   -6.092891156713
 H   -0.903650000000   -1.362990000000   -7.303901156713
NA    0.000000000000    0.000000000000   -2.828221156713
 S    0.000000000000    0.000000000000    6.571778843287
 C    0.000000000000   -1.400463393532    7.730355271400
 H    0.903648791035   -1.362989528631    8.352292719066
 H    0.000000000000   -2.326794900308    7.141280647559
 H   -0.903648791035   -1.362989528631    8.352292719066
 C    0.000000000000    1.400463393532    7.730355271400
 H   -0.903648791035    1.362989528631    8.352292719066
 H    0.000000000000    2.326794900308    7.141280647559
 H    0.903648791035    1.362989528631    8.352292719066
