19

 H   -0.903650000000    1.362990000000   -7.388264816236
 H   -0.000000000000    2.326790000000   -6.177254816236
 H    0.903650000000    1.362990000000   -7.388264816236
 C   -0.000000000000    1.400460000000   -6.766324816236
 S    0.000000000000    0.000000000000   -5.607754816236
 C    0.000000000000   -1.400460000000   -6.766324816236
 H    0.903650000000   -1.362990000000   -7.388264816236
 H    0.000000000000   -2.326790000000   -6.177254816236
 H   -0.903650000000   -1.362990000000   -7.388264816236
NA    0.000000000000    0.000000000000   -2.912584816236
 S    0.000000000000    0.000000000000    6.687415183764
 C    0.000000000000   -1.400463393532    7.845991611876
 H    0.903648791035   -1.362989528631    8.467929059543
 H    0.000000000000   -2.326794900308    7.256916988035
 H   -0.903648791035   -1.362989528631    8.467929059543
 C    0.000000000000    1.400463393532    7.845991611876
 H   -0.903648791035    1.362989528631    8.467929059543
 H    0.000000000000    2.326794900308    7.256916988035
 H    0.903648791035    1.362989528631    8.467929059543
