18

 C   -1.146231454589   -2.575353255227    0.000000000000
 H   -1.859011454589   -1.740573255227    0.000000000000
 H   -1.307701454589   -3.213503255227    0.881880000000
 H   -1.307701454589   -3.213503255227   -0.881880000000
 C    0.257878545411   -2.051133255227    0.000000000000
 O    0.532728545411   -0.832373255227    0.000000000000
 O    1.177828545411   -2.996023255227    0.000000000000
 H    2.071508545411   -2.600283255227    0.000000000000
 K   -0.401731454589    0.631916744773    1.932210000000
 K   -0.401731454589    0.631916744773   -1.932210000000
 O   -0.005229532133    0.010598337892    0.000000000000
 C    0.269621078590    1.229361046004    0.000000000000
 O    1.506067626270    1.687947457959    0.000000000000
 H    2.143403775115    0.946938790347    0.000000000000
 C   -0.773587581738    2.305491697653    0.000000000000
 H   -1.775671582662    1.857439255196    0.000000000000
 H   -0.645532167093    2.951180865451    0.881885213771
 H   -0.645532167093    2.951180865451   -0.881885213771
