18

 C   -1.080991458809   -2.677583271789    0.000000000000
 H   -1.793771458809   -1.842803271789    0.000000000000
 H   -1.242461458809   -3.315733271789    0.881880000000
 H   -1.242461458809   -3.315733271789   -0.881880000000
 C    0.323118541191   -2.153363271789    0.000000000000
 O    0.597968541191   -0.934603271789    0.000000000000
 O    1.243068541191   -3.098253271789    0.000000000000
 H    2.136748541191   -2.702513271789    0.000000000000
 K   -0.336491458809    0.529686728211    1.932210000000
 K   -0.336491458809    0.529686728211   -1.932210000000
 O   -0.155172767371    0.245556958577    0.000000000000
 C    0.119677843352    1.464319666689    0.000000000000
 O    1.356124391032    1.922906078644    0.000000000000
 H    1.993460539876    1.181897411032    0.000000000000
 C   -0.923530816976    2.540450318338    0.000000000000
 H   -1.925614817900    2.092397875881    0.000000000000
 H   -0.795475402331    3.186139486136    0.881885213771
 H   -0.795475402331    3.186139486136   -0.881885213771
