18

 C   -1.048371460920   -2.728698280071    0.000000000000
 H   -1.761151460920   -1.893918280071    0.000000000000
 H   -1.209841460920   -3.366848280071    0.881880000000
 H   -1.209841460920   -3.366848280071   -0.881880000000
 C    0.355738539080   -2.204478280071    0.000000000000
 O    0.630588539080   -0.985718280071    0.000000000000
 O    1.275688539080   -3.149368280071    0.000000000000
 H    2.169368539080   -2.753628280071    0.000000000000
 K   -0.303871460920    0.478571719929    1.932210000000
 K   -0.303871460920    0.478571719929   -1.932210000000
 O   -0.230144384990    0.363036268919    0.000000000000
 C    0.044706225733    1.581798977032    0.000000000000
 O    1.281152773413    2.040385388987    0.000000000000
 H    1.918488922257    1.299376721375    0.000000000000
 C   -0.998502434595    2.657929628680    0.000000000000
 H   -2.000586435519    2.209877186223    0.000000000000
 H   -0.870447019950    3.303618796478    0.881885213771
 H   -0.870447019950    3.303618796478   -0.881885213771
