18

 C   -1.032061461975   -2.754255784211    0.000000000000
 H   -1.744841461975   -1.919475784211    0.000000000000
 H   -1.193531461975   -3.392405784211    0.881880000000
 H   -1.193531461975   -3.392405784211   -0.881880000000
 C    0.372048538025   -2.230035784211    0.000000000000
 O    0.646898538025   -1.011275784211    0.000000000000
 O    1.291998538025   -3.174925784211    0.000000000000
 H    2.185678538025   -2.779185784211    0.000000000000
 K   -0.287561461975    0.453014215789    1.932210000000
 K   -0.287561461975    0.453014215789   -1.932210000000
 O   -0.267630193800    0.421775924091    0.000000000000
 C    0.007220416923    1.640538632203    0.000000000000
 O    1.243666964603    2.099125044158    0.000000000000
 H    1.881003113448    1.358116376546    0.000000000000
 C   -1.035988243404    2.716669283851    0.000000000000
 H   -2.038072244329    2.268616841395    0.000000000000
 H   -0.907932828760    3.362358451649    0.881885213771
 H   -0.907932828760    3.362358451649   -0.881885213771
