18

 C   -1.017546819543   -2.779408406556    0.000000000000
 H   -1.730326819543   -1.944628406556    0.000000000000
 H   -1.179016819543   -3.417558406556    0.881880000000
 H   -1.179016819543   -3.417558406556   -0.881880000000
 C    0.386563180457   -2.255188406556    0.000000000000
 O    0.661413180457   -1.036428406556    0.000000000000
 O    1.306513180457   -3.200078406556    0.000000000000
 H    2.200193180457   -2.804338406556    0.000000000000
 K   -0.273046819543    0.427861593444    1.932210000000
 K   -0.273046819543    0.427861593444   -1.932210000000
 O   -0.306911359123    0.480920461058    0.000000000000
 C   -0.032060748400    1.699683169170    0.000000000000
 O   -0.952001566036    2.644569646239    0.000000000000
 H   -1.845692267690    2.248832180388    0.000000000000
 C    1.372052769974    2.223903271723    0.000000000000
 H    2.084836775722    1.389120487251    0.000000000000
 H    1.533524488986    2.862056524939   -0.881885213771
 H    1.533524488986    2.862056524939    0.881885213771
