18

 C    0.319873093935   -4.875123746087    0.000000000000
 H   -0.392906906065   -4.040343746087    0.000000000000
 H    0.158403093935   -5.513273746087    0.881880000000
 H    0.158403093935   -5.513273746087   -0.881880000000
 C    1.723983093935   -4.350903746087    0.000000000000
 O    1.998833093935   -3.132143746087    0.000000000000
 O    2.643933093935   -5.295793746087    0.000000000000
 H    3.537613093935   -4.900053746087    0.000000000000
 K    1.064373093935   -1.667853746087    1.932210000000
 K    1.064373093935   -1.667853746087   -1.932210000000
 O   -3.380747681505    5.297572185101    0.000000000000
 C   -3.105897070782    6.516334893213    0.000000000000
 O   -4.025837888419    7.461221370281    0.000000000000
 H   -4.919528590072    7.065483904431    0.000000000000
 C   -1.701783552409    7.040554995766    0.000000000000
 H   -0.988999546661    6.205772211294    0.000000000000
 H   -1.540311833396    7.678708248982   -0.881885213771
 H   -1.540311833396    7.678708248982    0.881885213771
