18

 C   -0.984926821654   -2.830523414837    0.000000000000
 H   -1.697706821654   -1.995743414837    0.000000000000
 H   -1.146396821654   -3.468673414837    0.881880000000
 H   -1.146396821654   -3.468673414837   -0.881880000000
 C    0.419183178346   -2.306303414837    0.000000000000
 O    0.694033178346   -1.087543414837    0.000000000000
 O    1.339133178346   -3.251193414837    0.000000000000
 H    2.232813178346   -2.855453414837    0.000000000000
 K   -0.240426821654    0.376746585163    1.932210000000
 K   -0.240426821654    0.376746585163   -1.932210000000
 O   -0.381882976742    0.598399771400    0.000000000000
 C   -0.107032366019    1.817162479513    0.000000000000
 O   -1.026973183655    2.762048956581    0.000000000000
 H   -1.920663885309    2.366311490731    0.000000000000
 C    1.297081152355    2.341382582065    0.000000000000
 H    2.009865158103    1.506599797594    0.000000000000
 H    1.458552871367    2.979535835282   -0.881885213771
 H    1.458552871367    2.979535835282    0.881885213771
