18

 C   -0.935996824819   -2.907195927259    0.000000000000
 H   -1.648776824819   -2.072415927259    0.000000000000
 H   -1.097466824819   -3.545345927259    0.881880000000
 H   -1.097466824819   -3.545345927259   -0.881880000000
 C    0.468113175181   -2.382975927259    0.000000000000
 O    0.742963175181   -1.164215927259    0.000000000000
 O    1.388063175181   -3.327865927259    0.000000000000
 H    2.281743175181   -2.932125927259    0.000000000000
 K   -0.191496824819    0.300074072741    1.932210000000
 K   -0.191496824819    0.300074072741   -1.932210000000
 O   -0.494340403170    0.774618736914    0.000000000000
 C   -0.219489792447    1.993381445026    0.000000000000
 O   -1.139430610084    2.938267922095    0.000000000000
 H   -2.033121311738    2.542530456245    0.000000000000
 C    1.184623725926    2.517601547579    0.000000000000
 H    1.897407731674    1.682818763108    0.000000000000
 H    1.346095444939    3.155754800795   -0.881885213771
 H    1.346095444939    3.155754800795    0.881885213771
