18

 C   -0.903376826929   -2.958310935540    0.000000000000
 H   -1.616156826929   -2.123530935540    0.000000000000
 H   -1.064846826929   -3.596460935540    0.881880000000
 H   -1.064846826929   -3.596460935540   -0.881880000000
 C    0.500733173071   -2.434090935540    0.000000000000
 O    0.775583173071   -1.215330935540    0.000000000000
 O    1.420683173071   -3.378980935540    0.000000000000
 H    2.314363173071   -2.983240935540    0.000000000000
 K   -0.158876826929    0.248959064460    1.932210000000
 K   -0.158876826929    0.248959064460   -1.932210000000
 O   -0.569312020789    0.892098047257    0.000000000000
 C   -0.294461410067    2.110860755369    0.000000000000
 O   -1.214402227703    3.055747232437    0.000000000000
 H   -2.108092929357    2.660009766587    0.000000000000
 C    1.109652108307    2.635080857922    0.000000000000
 H    1.822436114055    1.800298073450    0.000000000000
 H    1.271123827320    3.273234111138   -0.881885213771
 H    1.271123827320    3.273234111138    0.881885213771
