18

 C   -0.870756829040   -3.009425943821    0.000000000000
 H   -1.583536829040   -2.174645943821    0.000000000000
 H   -1.032226829040   -3.647575943821    0.881880000000
 H   -1.032226829040   -3.647575943821   -0.881880000000
 C    0.533353170960   -2.485205943821    0.000000000000
 O    0.808203170960   -1.266445943821    0.000000000000
 O    1.453303170960   -3.430095943821    0.000000000000
 H    2.346983170960   -3.034355943821    0.000000000000
 K   -0.126256829040    0.197844056179    1.932210000000
 K   -0.126256829040    0.197844056179   -1.932210000000
 O   -0.644283638409    1.009577357599    0.000000000000
 C   -0.369433027686    2.228340065711    0.000000000000
 O   -1.289373845322    3.173226542780    0.000000000000
 H   -2.183064546976    2.777489076930    0.000000000000
 C    1.034680490688    2.752560168264    0.000000000000
 H    1.747464496436    1.917777383793    0.000000000000
 H    1.196152209701    3.390713421480   -0.881885213771
 H    1.196152209701    3.390713421480    0.881885213771
