18

 C   -0.854446830095   -3.034983447962    0.000000000000
 H   -1.567226830095   -2.200203447962    0.000000000000
 H   -1.015916830095   -3.673133447962    0.881880000000
 H   -1.015916830095   -3.673133447962   -0.881880000000
 C    0.549663169905   -2.510763447962    0.000000000000
 O    0.824513169905   -1.292003447962    0.000000000000
 O    1.469613169905   -3.455653447962    0.000000000000
 H    2.363293169905   -3.059913447962    0.000000000000
 K   -0.109946830095    0.172286552038    1.932210000000
 K   -0.109946830095    0.172286552038   -1.932210000000
 O   -0.681769447218    1.068317012770    0.000000000000
 C   -0.406918836495    2.287079720883    0.000000000000
 O   -1.326859654131    3.231966197951    0.000000000000
 H   -2.220550355785    2.836228732101    0.000000000000
 C    0.997194681879    2.811299823435    0.000000000000
 H    1.709978687627    1.976517038964    0.000000000000
 H    1.158666400891    3.449453076652   -0.881885213771
 H    1.158666400891    3.449453076652    0.881885213771
