18

 C   -0.756586836426   -3.188328472806    0.000000000000
 H   -1.469366836426   -2.353548472806    0.000000000000
 H   -0.918056836426   -3.826478472806    0.881880000000
 H   -0.918056836426   -3.826478472806   -0.881880000000
 C    0.647523163574   -2.664108472806    0.000000000000
 O    0.922373163574   -1.445348472806    0.000000000000
 O    1.567473163574   -3.608998472806    0.000000000000
 H    2.461153163574   -3.213258472806    0.000000000000
 K   -0.012086836426    0.018941527194    1.932210000000
 K   -0.012086836426    0.018941527194   -1.932210000000
 O   -0.906684300075    1.420754943798    0.000000000000
 C   -0.631833689352    2.639517651910    0.000000000000
 O   -1.551774506989    3.584404128979    0.000000000000
 H   -2.445465208643    3.188666663128    0.000000000000
 C    0.772279829021    3.163737754463    0.000000000000
 H    1.485063834769    2.328954969991    0.000000000000
 H    0.933751548034    3.801891007679   -0.881885213771
 H    0.933751548034    3.801891007679    0.881885213771
