18

 C   -0.707656839591   -3.265000985228    0.000000000000
 H   -1.420436839591   -2.430220985228    0.000000000000
 H   -0.869126839591   -3.903150985228    0.881880000000
 H   -0.869126839591   -3.903150985228   -0.881880000000
 C    0.696453160409   -2.740780985228    0.000000000000
 O    0.971303160409   -1.522020985228    0.000000000000
 O    1.616403160409   -3.685670985228    0.000000000000
 H    2.510083160409   -3.289930985228    0.000000000000
 K    0.036843160409   -0.057730985228    1.932210000000
 K    0.036843160409   -0.057730985228   -1.932210000000
 O   -1.019141726504    1.596973909312    0.000000000000
 C   -0.744291115781    2.815736617424    0.000000000000
 O   -1.664231933417    3.760623094492    0.000000000000
 H   -2.557922635071    3.364885628642    0.000000000000
 C    0.659822402593    3.339956719977    0.000000000000
 H    1.372606408341    2.505173935505    0.000000000000
 H    0.821294121605    3.978109973193   -0.881885213771
 H    0.821294121605    3.978109973193    0.881885213771
