18

 C   -0.675036841701   -3.316115993509    0.000000000000
 H   -1.387816841701   -2.481335993509    0.000000000000
 H   -0.836506841701   -3.954265993509    0.881880000000
 H   -0.836506841701   -3.954265993509   -0.881880000000
 C    0.729073158299   -2.791895993509    0.000000000000
 O    1.003923158299   -1.573135993509    0.000000000000
 O    1.649023158299   -3.736785993509    0.000000000000
 H    2.542703158299   -3.341045993509    0.000000000000
 K    0.069463158299   -0.108845993509    1.932210000000
 K    0.069463158299   -0.108845993509   -1.932210000000
 O   -1.094113344123    1.714453219654    0.000000000000
 C   -0.819262733400    2.933215927767    0.000000000000
 O   -1.739203551036    3.878102404835    0.000000000000
 H   -2.632894252690    3.482364938985    0.000000000000
 C    0.584850784974    3.457436030319    0.000000000000
 H    1.297634790722    2.622653245848    0.000000000000
 H    0.746322503986    4.095589283536   -0.881885213771
 H    0.746322503986    4.095589283536    0.881885213771
