18

 C   -0.658726842757   -3.341673497650    0.000000000000
 H   -1.371506842757   -2.506893497650    0.000000000000
 H   -0.820196842757   -3.979823497650    0.881880000000
 H   -0.820196842757   -3.979823497650   -0.881880000000
 C    0.745383157243   -2.817453497650    0.000000000000
 O    1.020233157243   -1.598693497650    0.000000000000
 O    1.665333157243   -3.762343497650    0.000000000000
 H    2.559013157243   -3.366603497650    0.000000000000
 K    0.085773157243   -0.134403497650    1.932210000000
 K    0.085773157243   -0.134403497650   -1.932210000000
 O   -1.131599152933    1.773192874825    0.000000000000
 C   -0.856748542210    2.991955582938    0.000000000000
 O   -1.776689359846    3.936842060006    0.000000000000
 H   -2.670380061500    3.541104594156    0.000000000000
 C    0.547364976164    3.516175685490    0.000000000000
 H    1.260148981912    2.681392901019    0.000000000000
 H    0.708836695176    4.154328938707   -0.881885213771
 H    0.708836695176    4.154328938707    0.881885213771
