18

 C   -0.642416843812   -3.367231001790    0.000000000000
 H   -1.355196843812   -2.532451001790    0.000000000000
 H   -0.803886843812   -4.005381001790    0.881880000000
 H   -0.803886843812   -4.005381001790   -0.881880000000
 C    0.761693156188   -2.843011001790    0.000000000000
 O    1.036543156188   -1.624251001790    0.000000000000
 O    1.681643156188   -3.787901001790    0.000000000000
 H    2.575323156188   -3.392161001790    0.000000000000
 K    0.102083156188   -0.159961001790    1.932210000000
 K    0.102083156188   -0.159961001790   -1.932210000000
 O   -1.169084961742    1.831932529997    0.000000000000
 C   -0.894234351019    3.050695238109    0.000000000000
 O   -1.814175168656    3.995581715177    0.000000000000
 H   -2.707865870309    3.599844249327    0.000000000000
 C    0.509879167354    3.574915340662    0.000000000000
 H    1.222663173102    2.740132556190    0.000000000000
 H    0.671350886367    4.213068593878   -0.881885213771
 H    0.671350886367    4.213068593878    0.881885213771
