18

 C   -0.609796845922   -3.418346010071    0.000000000000
 H   -1.322576845922   -2.583566010071    0.000000000000
 H   -0.771266845922   -4.056496010071    0.881880000000
 H   -0.771266845922   -4.056496010071   -0.881880000000
 C    0.794313154078   -2.894126010071    0.000000000000
 O    1.069163154078   -1.675366010071    0.000000000000
 O    1.714263154078   -3.839016010071    0.000000000000
 H    2.607943154078   -3.443276010071    0.000000000000
 K    0.134703154078   -0.211076010071    1.932210000000
 K    0.134703154078   -0.211076010071   -1.932210000000
 O   -1.244056579361    1.949411840339    0.000000000000
 C   -0.969205968638    3.168174548452    0.000000000000
 O   -1.889146786275    4.113061025520    0.000000000000
 H   -2.782837487928    3.717323559670    0.000000000000
 C    0.434907549735    3.692394651004    0.000000000000
 H    1.147691555483    2.857611866533    0.000000000000
 H    0.596379268748    4.330547904221   -0.881885213771
 H    0.596379268748    4.330547904221    0.881885213771
