18

 C   -0.397766859639   -3.750593563899    0.000000000000
 H   -1.110546859639   -2.915813563899    0.000000000000
 H   -0.559236859639   -4.388743563899    0.881880000000
 H   -0.559236859639   -4.388743563899   -0.881880000000
 C    1.006343140361   -3.226373563899    0.000000000000
 O    1.281193140361   -2.007613563899    0.000000000000
 O    1.926293140361   -4.171263563899    0.000000000000
 H    2.819973140361   -3.775523563899    0.000000000000
 K    0.346733140361   -0.543323563899    1.932210000000
 K    0.346733140361   -0.543323563899   -1.932210000000
 O   -1.731372093885    2.713027357566    0.000000000000
 C   -1.456521483162    3.931790065678    0.000000000000
 O   -2.376462300799    4.876676542746    0.000000000000
 H   -3.270153002452    4.480939076896    0.000000000000
 C   -0.052407964789    4.456010168230    0.000000000000
 H    0.660376040959    3.621227383759    0.000000000000
 H    0.109063754224    5.094163421447   -0.881885213771
 H    0.109063754224    5.094163421447    0.881885213771
