18

 C   -0.316216864915   -3.878381084603    0.000000000000
 H   -1.028996864915   -3.043601084603    0.000000000000
 H   -0.477686864915   -4.516531084603    0.881880000000
 H   -0.477686864915   -4.516531084603   -0.881880000000
 C    1.087893135085   -3.354161084603    0.000000000000
 O    1.362743135085   -2.135401084603    0.000000000000
 O    2.007843135085   -4.299051084603    0.000000000000
 H    2.901523135085   -3.903311084603    0.000000000000
 K    0.428283135085   -0.671111084603    1.932210000000
 K    0.428283135085   -0.671111084603   -1.932210000000
 O   -1.918801137933    3.006725633422    0.000000000000
 C   -1.643950527210    4.225488341534    0.000000000000
 O   -2.563891344846    5.170374818602    0.000000000000
 H   -3.457582046500    4.774637352752    0.000000000000
 C   -0.239837008836    4.749708444087    0.000000000000
 H    0.472946996912    3.914925659615    0.000000000000
 H   -0.078365289824    5.387861697303   -0.881885213771
 H   -0.078365289824    5.387861697303    0.881885213771
