18

 C   -0.299906865970   -3.903938588743    0.000000000000
 H   -1.012686865970   -3.069158588743    0.000000000000
 H   -0.461376865970   -4.542088588743    0.881880000000
 H   -0.461376865970   -4.542088588743   -0.881880000000
 C    1.104203134030   -3.379718588743    0.000000000000
 O    1.379053134030   -2.160958588743    0.000000000000
 O    2.024153134030   -4.324608588743    0.000000000000
 H    2.917833134030   -3.928868588743    0.000000000000
 K    0.444593134030   -0.696668588743    1.932210000000
 K    0.444593134030   -0.696668588743   -1.932210000000
 O   -1.956286946743    3.065465288593    0.000000000000
 C   -1.681436336020    4.284227996705    0.000000000000
 O   -2.601377153656    5.229114473774    0.000000000000
 H   -3.495067855310    4.833377007924    0.000000000000
 C   -0.277322817646    4.808448099258    0.000000000000
 H    0.435461188102    3.973665314787    0.000000000000
 H   -0.115851098633    5.446601352474   -0.881885213771
 H   -0.115851098633    5.446601352474    0.881885213771
