18

 C   -0.267286868080   -3.955053597024    0.000000000000
 H   -0.980066868080   -3.120273597024    0.000000000000
 H   -0.428756868080   -4.593203597024    0.881880000000
 H   -0.428756868080   -4.593203597024   -0.881880000000
 C    1.136823131920   -3.430833597024    0.000000000000
 O    1.411673131920   -2.212073597024    0.000000000000
 O    2.056773131920   -4.375723597024    0.000000000000
 H    2.950453131920   -3.979983597024    0.000000000000
 K    0.477213131920   -0.747783597024    1.932210000000
 K    0.477213131920   -0.747783597024   -1.932210000000
 O   -2.031258564362    3.182944598936    0.000000000000
 C   -1.756407953639    4.401707307048    0.000000000000
 O   -2.676348771275    5.346593784116    0.000000000000
 H   -3.570039472929    4.950856318266    0.000000000000
 C   -0.352294435265    4.925927409600    0.000000000000
 H    0.360489570483    4.091144625129    0.000000000000
 H   -0.190822716253    5.564080662817   -0.881885213771
 H   -0.190822716253    5.564080662817    0.881885213771
