18

 C   -0.202046872301   -4.057283613587    0.000000000000
 H   -0.914826872301   -3.222503613587    0.000000000000
 H   -0.363516872301   -4.695433613587    0.881880000000
 H   -0.363516872301   -4.695433613587   -0.881880000000
 C    1.202063127699   -3.533063613587    0.000000000000
 O    1.476913127699   -2.314303613587    0.000000000000
 O    2.122013127699   -4.477953613587    0.000000000000
 H    3.015693127699   -4.082213613587    0.000000000000
 K    0.542453127699   -0.850013613587    1.932210000000
 K    0.542453127699   -0.850013613587   -1.932210000000
 O   -2.181201799600    3.417903219621    0.000000000000
 C   -1.906351188877    4.636665927733    0.000000000000
 O   -2.826292006513    5.581552404801    0.000000000000
 H   -3.719982708167    5.185814938951    0.000000000000
 C   -0.502237670503    5.160886030285    0.000000000000
 H    0.210546335245    4.326103245814    0.000000000000
 H   -0.340765951491    5.799039283502   -0.881885213771
 H   -0.340765951491    5.799039283502    0.881885213771
