18

 C   -0.136806876521   -4.159513630149    0.000000000000
 H   -0.849586876521   -3.324733630149    0.000000000000
 H   -0.298276876521   -4.797663630149    0.881880000000
 H   -0.298276876521   -4.797663630149   -0.881880000000
 C    1.267303123479   -3.635293630149    0.000000000000
 O    1.542153123479   -2.416533630149    0.000000000000
 O    2.187253123479   -4.580183630149    0.000000000000
 H    3.080933123479   -4.184443630149    0.000000000000
 K    0.607693123479   -0.952243630149    1.932210000000
 K    0.607693123479   -0.952243630149   -1.932210000000
 O   -2.331145034838    3.652861840306    0.000000000000
 C   -2.056294424115    4.871624548418    0.000000000000
 O   -2.976235241751    5.816511025486    0.000000000000
 H   -3.869925943405    5.420773559636    0.000000000000
 C   -0.652180905741    5.395844650970    0.000000000000
 H    0.060603100007    4.561061866499    0.000000000000
 H   -0.490709186729    6.033997904187   -0.881885213771
 H   -0.490709186729    6.033997904187    0.881885213771
