18

 C    0.009983113982   -4.389531167415    0.000000000000
 H   -0.702796886018   -3.554751167415    0.000000000000
 H   -0.151486886018   -5.027681167415    0.881880000000
 H   -0.151486886018   -5.027681167415   -0.881880000000
 C    1.414093113982   -3.865311167415    0.000000000000
 O    1.688943113982   -2.646551167415    0.000000000000
 O    2.334043113982   -4.810201167415    0.000000000000
 H    3.227723113982   -4.414461167415    0.000000000000
 K    0.754483113982   -1.182261167415    1.932210000000
 K    0.754483113982   -1.182261167415   -1.932210000000
 O   -2.668517314124    4.181518736847    0.000000000000
 C   -2.393666703401    5.400281444959    0.000000000000
 O   -3.313607521037    6.345167922028    0.000000000000
 H   -4.207298222691    5.949430456177    0.000000000000
 C   -0.989553185027    5.924501547512    0.000000000000
 H   -0.276769179279    5.089718763040    0.000000000000
 H   -0.828081466015    6.562654800728   -0.881885213771
 H   -0.828081466015    6.562654800728    0.881885213771
