18

 C    0.140463105541   -4.593991200540    0.000000000000
 H   -0.572316894459   -3.759211200540    0.000000000000
 H   -0.021006894459   -5.232141200540    0.881880000000
 H   -0.021006894459   -5.232141200540   -0.881880000000
 C    1.544573105541   -4.069771200540    0.000000000000
 O    1.819423105541   -2.851011200540    0.000000000000
 O    2.464523105541   -5.014661200540    0.000000000000
 H    3.358203105541   -4.618921200540    0.000000000000
 K    0.884963105541   -1.386721200540    1.932210000000
 K    0.884963105541   -1.386721200540   -1.932210000000
 O   -2.968403784600    4.651435978217    0.000000000000
 C   -2.693553173877    5.870198686329    0.000000000000
 O   -3.613493991514    6.815085163398    0.000000000000
 H   -4.507184693167    6.419347697547    0.000000000000
 C   -1.289439655504    6.394418788882    0.000000000000
 H   -0.576655649756    5.559636004410    0.000000000000
 H   -1.127967936491    7.032572042098   -0.881885213771
 H   -1.127967936491    7.032572042098    0.881885213771
