18

 C    0.156773104486   -4.619548704681    0.000000000000
 H   -0.556006895514   -3.784768704681    0.000000000000
 H   -0.004696895514   -5.257698704681    0.881880000000
 H   -0.004696895514   -5.257698704681   -0.881880000000
 C    1.560883104486   -4.095328704681    0.000000000000
 O    1.835733104486   -2.876568704681    0.000000000000
 O    2.480833104486   -5.040218704681    0.000000000000
 H    3.374513104486   -4.644478704681    0.000000000000
 K    0.901273104486   -1.412278704681    1.932210000000
 K    0.901273104486   -1.412278704681   -1.932210000000
 O   -3.005889593410    4.710175633388    0.000000000000
 C   -2.731038982687    5.928938341501    0.000000000000
 O   -3.650979800323    6.873824818569    0.000000000000
 H   -4.544670501977    6.478087352719    0.000000000000
 C   -1.326925464313    6.453158444053    0.000000000000
 H   -0.614141458565    5.618375659582    0.000000000000
 H   -1.165453745301    7.091311697270   -0.881885213771
 H   -1.165453745301    7.091311697270    0.881885213771
