18

 C    0.173083103431   -4.645106208821    0.000000000000
 H   -0.539696896569   -3.810326208821    0.000000000000
 H    0.011613103431   -5.283256208821    0.881880000000
 H    0.011613103431   -5.283256208821   -0.881880000000
 C    1.577193103431   -4.120886208821    0.000000000000
 O    1.852043103431   -2.902126208821    0.000000000000
 O    2.497143103431   -5.065776208821    0.000000000000
 H    3.390823103431   -4.670036208821    0.000000000000
 K    0.917583103431   -1.437836208821    1.932210000000
 K    0.917583103431   -1.437836208821   -1.932210000000
 O   -3.043375402219    4.768915288559    0.000000000000
 C   -2.768524791496    5.987677996672    0.000000000000
 O   -3.688465609133    6.932564473740    0.000000000000
 H   -4.582156310786    6.536827007890    0.000000000000
 C   -1.364411273123    6.511898099224    0.000000000000
 H   -0.651627267375    5.677115314753    0.000000000000
 H   -1.202939554110    7.150051352441   -0.881885213771
 H   -1.202939554110    7.150051352441    0.881885213771
