18

 C    0.189393102376   -4.670663712962    0.000000000000
 H   -0.523386897624   -3.835883712962    0.000000000000
 H    0.027923102376   -5.308813712962    0.881880000000
 H    0.027923102376   -5.308813712962   -0.881880000000
 C    1.593503102376   -4.146443712962    0.000000000000
 O    1.868353102376   -2.927683712962    0.000000000000
 O    2.513453102376   -5.091333712962    0.000000000000
 H    3.407133102376   -4.695593712962    0.000000000000
 K    0.933893102376   -1.463393712962    1.932210000000
 K    0.933893102376   -1.463393712962   -1.932210000000
 O   -3.080861211029    4.827654943731    0.000000000000
 C   -2.806010600306    6.046417651843    0.000000000000
 O   -3.725951417942    6.991304128911    0.000000000000
 H   -4.619642119596    6.595566663061    0.000000000000
 C   -1.401897081932    6.570637754396    0.000000000000
 H   -0.689113076184    5.735854969924    0.000000000000
 H   -1.240425362920    7.208791007612   -0.881885213771
 H   -1.240425362920    7.208791007612    0.881885213771
