18

 C    0.238323099210   -4.747336225384    0.000000000000
 H   -0.474456900790   -3.912556225384    0.000000000000
 H    0.076853099210   -5.385486225384    0.881880000000
 H    0.076853099210   -5.385486225384   -0.881880000000
 C    1.642433099210   -4.223116225384    0.000000000000
 O    1.917283099210   -3.004356225384    0.000000000000
 O    2.562383099210   -5.168006225384    0.000000000000
 H    3.456063099210   -4.772266225384    0.000000000000
 K    0.982823099210   -1.540066225384    1.932210000000
 K    0.982823099210   -1.540066225384   -1.932210000000
 O   -3.193318637457    5.003873909244    0.000000000000
 C   -2.918468026735    6.222636617357    0.000000000000
 O   -3.838408844371    7.167523094425    0.000000000000
 H   -4.732099546025    6.771785628575    0.000000000000
 C   -1.514354508361    6.746856719909    0.000000000000
 H   -0.801570502613    5.912073935438    0.000000000000
 H   -1.352882789348    7.385009973126   -0.881885213771
 H   -1.352882789348    7.385009973126    0.881885213771
