18

 C    0.287253096045   -4.824008737806    0.000000000000
 H   -0.425526903955   -3.989228737806    0.000000000000
 H    0.125783096045   -5.462158737806    0.881880000000
 H    0.125783096045   -5.462158737806   -0.881880000000
 C    1.691363096045   -4.299788737806    0.000000000000
 O    1.966213096045   -3.081028737806    0.000000000000
 O    2.611313096045   -5.244678737806    0.000000000000
 H    3.504993096045   -4.848938737806    0.000000000000
 K    1.031753096045   -1.616738737806    1.932210000000
 K    1.031753096045   -1.616738737806   -1.932210000000
 O   -3.305776063886    5.180092874758    0.000000000000
 C   -3.030925453163    6.398855582871    0.000000000000
 O   -3.950866270799    7.343742059939    0.000000000000
 H   -4.844556972453    6.948004594089    0.000000000000
 C   -1.626811934789    6.923075685423    0.000000000000
 H   -0.914027929041    6.088292900952    0.000000000000
 H   -1.465340215777    7.561228938640   -0.881885213771
 H   -1.465340215777    7.561228938640    0.881885213771
