6

 H   -0.214472355912    2.274630566501    2.206502716640
 H    0.235584644088    0.612705566501    2.663002716640
 H   -1.426382355912    0.971316566501    2.131776716640
 C   -0.361313355912    1.208827566501    1.946419716640
 S    0.121855644088    0.859726566501    0.199136716640
CS    0.013965185544   -0.345222982782   -0.276737460678
