6

 H   -0.189947362386    2.548532265446    2.314675499251
 H    0.260109637614    0.886607265446    2.771175499251
 H   -1.401857362386    1.245218265446    2.239949499251
 C   -0.336788362386    1.482729265446    2.054592499251
 S    0.146380637614    1.133628265446    0.307309499251
CS    0.005293114903   -0.442074991308   -0.314987501857
