6

 H    0.318946253277    8.231992518563    4.559260738426
 H    0.769003253277    6.570067518563    5.015760738426
 H   -0.892963746723    6.928678518563    4.484534738426
 C    0.172105253277    7.166189518563    4.299177738426
 S    0.655274253277    6.817088518563    2.551894738426
CS   -0.174652350908   -2.451754168229   -1.108675856327
