6

 H   -0.153159872097    2.959384813865    2.476934673167
 H    0.296897127903    1.297459813865    2.933434673167
 H   -1.365069872097    1.656070813865    2.402208673167
 C   -0.300000872097    1.893581813865    2.216851673167
 S    0.183168127903    1.544480813865    0.469568673167
CS   -0.007714991060   -0.587353004098   -0.372362563626
