6

 H   -0.147028623716    3.027860238601    2.503977868820
 H    0.303028376284    1.365935238601    2.960477868820
 H   -1.358938623716    1.724546238601    2.429251868820
 C   -0.293869623716    1.962057238601    2.243894868820
 S    0.189299376284    1.612956238601    0.496611868820
CS   -0.009883008720   -0.611566006229   -0.381925073921
