6

 H   -0.140897375334    3.096335663337    2.531021064473
 H    0.309159624666    1.434410663337    2.987521064473
 H   -1.352807375334    1.793021663337    2.456295064473
 C   -0.287738375334    2.030532663337    2.270938064473
 S    0.195430624666    1.681431663337    0.523655064473
CS   -0.012051026380   -0.635779008361   -0.391487584216
