6

 H   -0.134766126953    3.164811088074    2.558064260125
 H    0.315290873047    1.502886088074    3.014564260125
 H   -1.346676126953    1.861497088074    2.483338260125
 C   -0.281607126953    2.099008088074    2.297981260125
 S    0.201561873047    1.749907088074    0.550698260125
CS   -0.014219044041   -0.659992010492   -0.401050094511
