6

 H   -0.128634878571    3.233286512810    2.585107455778
 H    0.321422121429    1.571361512810    3.041607455778
 H   -1.340544878571    1.929972512810    2.510381455778
 C   -0.275475878571    2.167483512810    2.325024455778
 S    0.207693121429    1.818382512810    0.577741455778
CS   -0.016387061701   -0.684205012624   -0.410612604805
