6

 H   -0.085716139901    3.712614485964    2.774409825347
 H    0.364340860099    2.050689485964    3.230909825347
 H   -1.297626139901    2.409300485964    2.699683825347
 C   -0.232557139901    2.646811485964    2.514326825347
 S    0.250611860099    2.297710485964    0.767043825347
CS   -0.031563185324   -0.853696027545   -0.477550176869
