6

 H   -0.073453643138    3.849565335437    2.828496216652
 H    0.376603356862    2.187640335437    3.284996216652
 H   -1.285363643138    2.546251335437    2.753770216652
 C   -0.220294643138    2.783762335437    2.568413216652
 S    0.262874356862    2.434661335437    0.821130216652
CS   -0.035899220644   -0.902122031808   -0.496675197459
