6

 H   -0.018272407705    4.465844158064    3.071884977527
 H    0.431784592295    2.803919158064    3.528384977527
 H   -1.230182407705    3.162530158064    2.997158977527
 C   -0.165113407705    3.400041158064    2.811801977527
 S    0.318055592295    3.050940158064    1.064518977527
CS   -0.055411379588   -1.120039050992   -0.582737790112
