6

 H    0.000121337440    4.671270432273    3.153014564485
 H    0.450178337440    3.009345432273    3.609514564485
 H   -1.211788662560    3.367956432273    3.078288564485
 C   -0.146719662560    3.605467432273    2.892931564485
 S    0.336449337440    3.256366432273    1.145648564485
CS   -0.061915432569   -1.192678057387   -0.611425320997
