6

 H    0.012383834203    4.808221281746    3.207100955790
 H    0.462440834203    3.146296281746    3.663600955790
 H   -1.199526165797    3.504907281746    3.132374955790
 C   -0.134457165797    3.742418281746    2.947017955790
 S    0.348711834203    3.393317281746    1.199734955790
CS   -0.066251467890   -1.241104061650   -0.630550341586
