6

 H    0.043040076110    5.150598405428    3.342316934054
 H    0.493097076110    3.488673405428    3.798816934054
 H   -1.168869923890    3.847284405428    3.267590934054
 C   -0.103800923890    4.084795405428    3.082233934054
 S    0.379368076110    3.735694405428    1.334950934054
CS   -0.077091556192   -1.362169072308   -0.678362893060
