6

 H    0.073696318018    5.492975529109    3.477532912317
 H    0.523753318018    3.831050529109    3.934032912317
 H   -1.138213681982    4.189661529109    3.402806912317
 C   -0.073144681982    4.427172529109    3.217449912317
 S    0.410024318018    4.078071529109    1.470166912317
CS   -0.087931644493   -1.483234082966   -0.726175444534
