6

 H    0.092090063162    5.698401803318    3.558662499276
 H    0.542147063162    4.036476803318    4.015162499276
 H   -1.119819936838    4.395087803318    3.483936499276
 C   -0.054750936838    4.632598803318    3.298579499276
 S    0.428418063162    4.283497803318    1.551296499276
CS   -0.094435697475   -1.555873089361   -0.754862975419
