6

 H    0.110483808307    5.903828077527    3.639792086234
 H    0.560540808307    4.241903077527    4.096292086234
 H   -1.101426191693    4.600514077527    3.565066086234
 C   -0.036357191693    4.838025077527    3.379709086234
 S    0.446811808307    4.488924077527    1.632426086234
CS   -0.100939750456   -1.628512095755   -0.783550506303
