6

 H    0.141140050214    6.246205201209    3.775008064497
 H    0.591197050214    4.584280201209    4.231508064497
 H   -1.070769949786    4.942891201209    3.700282064497
 C   -0.005700949786    5.180402201209    3.514925064497
 S    0.477468050214    4.831301201209    1.767642064497
CS   -0.111779838758   -1.749577106413   -0.831363057778
