6

 H    0.147271298595    6.314680625945    3.802051260150
 H    0.597328298595    4.652755625945    4.258551260150
 H   -1.064638701405    5.011366625945    3.727325260150
 C    0.000430298595    5.248877625945    3.541968260150
 S    0.483599298595    4.899776625945    1.794685260150
CS   -0.113947856418   -1.773790108545   -0.840925568072
