6

 H    0.177927540503    6.657057749627    3.937267238413
 H    0.627984540503    4.995132749627    4.393767238413
 H   -1.033982459497    5.353743749627    3.862541238413
 C    0.031086540503    5.591254749627    3.677184238413
 S    0.514255540503    5.242153749627    1.929901238413
CS   -0.124787944720   -1.894855119203   -0.888738119546
