6

 H    0.226977527555    7.204861147518    4.153612803635
 H    0.677034527555    5.542936147518    4.610112803635
 H   -0.984932472445    5.901547147518    4.078886803635
 C    0.080136527555    6.139058147518    3.893529803635
 S    0.563305527555    5.789957147518    2.146246803635
CS   -0.142132086003   -2.088559136255   -0.965238201905
