6

 H    0.233108775936    7.273336572254    4.180655999288
 H    0.683165775936    5.611411572254    4.637155999288
 H   -0.978801224064    5.970022572254    4.105929999288
 C    0.086267775936    6.207533572254    3.920572999288
 S    0.569436775936    5.858432572254    2.173289999288
CS   -0.144300103663   -2.112772138387   -0.974800712200
