6

 H    0.245371272699    7.410287421727    4.234742390593
 H    0.695428272699    5.748362421727    4.691242390593
 H   -0.966538727301    6.106973421727    4.160016390593
 C    0.098530272699    6.344484421727    3.974659390593
 S    0.581699272699    5.995383421727    2.227376390593
CS   -0.148636138984   -2.161198142650   -0.993925732789
