6

 H    0.263765017843    7.615713695936    4.315871977551
 H    0.713822017843    5.953788695936    4.772371977551
 H   -0.948144982157    6.312399695936    4.241145977551
 C    0.116924017843    6.549910695936    4.055788977551
 S    0.600093017843    6.200809695936    2.308505977551
CS   -0.155140191965   -2.233837149045   -1.022613263674
