6

 H    0.288290011369    7.889615394881    4.424044760162
 H    0.738347011369    6.227690394881    4.880544760162
 H   -0.923619988631    6.586301394881    4.349318760162
 C    0.141449011369    6.823812394881    4.163961760162
 S    0.624618011369    6.474711394881    2.416678760162
CS   -0.163812262606   -2.330689157571   -1.060863304853
