6

 H    0.300552508132    8.026566244354    4.478131151468
 H    0.750609508132    6.364641244354    4.934631151468
 H   -0.911357491868    6.723252244354    4.403405151468
 C    0.153711508132    6.960763244354    4.218048151468
 S    0.636880508132    6.611662244354    2.470765151468
CS   -0.168148297927   -2.379115161834   -1.079988325443
