6

 H    0.312815004895    8.163517093827    4.532217542773
 H    0.762872004895    6.501592093827    4.988717542773
 H   -0.899094995105    6.860203093827    4.457491542773
 C    0.165974004895    7.097714093827    4.272134542773
 S    0.649143004895    6.748613093827    2.524851542773
CS   -0.172484333248   -2.427541166097   -1.099113346033
