12

 C   -0.773852789417    2.123934989694   -0.602390944323
 C    0.338489210583    1.104456989694   -0.602390944323
 O   -0.165841789417   -0.161996010306   -0.602390944323
 C    0.848624210583   -1.195735010306   -0.602390944323
 O    1.536129210583    1.348949989694   -0.602390944323
 H   -0.341282789417    3.130944989694   -0.602390944323
 H   -1.406189789417    1.981362989694    0.286224055677
 H   -1.406189789417    1.981362989694   -1.491005944323
 H    0.294527210583   -2.140859010306   -0.602390944323
 H    1.478419210583   -1.109436010306    0.293799055677
 H    1.478419210583   -1.109436010306   -1.498580944323
RB   -0.317685279804   -0.543298456379    0.525240200620
