12

 C   -0.746814059015    2.191833415994   -0.803187925764
 C    0.365527940985    1.172355415994   -0.803187925764
 O   -0.138803059015   -0.094097584006   -0.803187925764
 C    0.875662940985   -1.127836584006   -0.803187925764
 O    1.563167940985    1.416848415994   -0.803187925764
 H   -0.314244059015    3.198843415994   -0.803187925764
 H   -1.379151059015    2.049261415994    0.085427074236
 H   -1.379151059015    2.049261415994   -1.691802925764
 H    0.321565940985   -2.072960584006   -0.803187925764
 H    1.505457940985   -1.041537584006    0.093002074236
 H    1.505457940985   -1.041537584006   -1.699377925764
RB   -0.341261046197   -0.602500845438    0.700320267494
