12

 C   -0.713015646012    2.276706448868   -1.054184152565
 C    0.399326353988    1.257228448868   -1.054184152565
 O   -0.105004646012   -0.009224551132   -1.054184152565
 C    0.909461353988   -1.042963551132   -1.054184152565
 O    1.596966353988    1.501721448868   -1.054184152565
 H   -0.280445646012    3.283716448868   -1.054184152565
 H   -1.345352646012    2.134134448868   -0.165569152565
 H   -1.345352646012    2.134134448868   -1.942799152565
 H    0.355364353988   -1.988087551132   -1.054184152565
 H    1.539256353988   -0.956664551132   -0.157994152565
 H    1.539256353988   -0.956664551132   -1.950374152565
RB   -0.370730754189   -0.676503831761    0.919170351086
