12

 C   -0.706255963412    2.293681055442   -1.104383397925
 C    0.406086036588    1.274203055442   -1.104383397925
 O   -0.098244963412    0.007750055442   -1.104383397925
 C    0.916221036588   -1.025988944558   -1.104383397925
 O    1.603726036588    1.518696055442   -1.104383397925
 H   -0.273685963412    3.300691055442   -1.104383397925
 H   -1.338592963412    2.151109055442   -0.215768397925
 H   -1.338592963412    2.151109055442   -1.992998397925
 H    0.362124036588   -1.971112944558   -1.104383397925
 H    1.546016036588   -0.939689944558   -0.208193397925
 H    1.546016036588   -0.939689944558   -2.000573397925
RB   -0.376624695787   -0.691304429026    0.962940367804
