12

 C   -0.699496280811    2.310655662017   -1.154582643285
 C    0.412845719189    1.291177662017   -1.154582643285
 O   -0.091485280811    0.024724662017   -1.154582643285
 C    0.922980719189   -1.009014337983   -1.154582643285
 O    1.610485719189    1.535670662017   -1.154582643285
 H   -0.266926280811    3.317665662017   -1.154582643285
 H   -1.331833280811    2.168083662017   -0.265967643285
 H   -1.331833280811    2.168083662017   -2.043197643285
 H    0.368883719189   -1.954138337983   -1.154582643285
 H    1.552775719189   -0.922715337983   -0.258392643285
 H    1.552775719189   -0.922715337983   -2.050772643285
RB   -0.382518637386   -0.706105026290    1.006710384522
