12

 C   -0.679217233010    2.361579481741   -1.305180379366
 C    0.433124766990    1.342101481741   -1.305180379366
 O   -0.071206233010    0.075648481741   -1.305180379366
 C    0.943259766990   -0.958090518259   -1.305180379366
 O    1.630764766990    1.586594481741   -1.305180379366
 H   -0.246647233010    3.368589481741   -1.305180379366
 H   -1.311554233010    2.219007481741   -0.416565379366
 H   -1.311554233010    2.219007481741   -2.193795379366
 H    0.389162766990   -1.903214518259   -1.305180379366
 H    1.573054766990   -0.871791518259   -0.408990379366
 H    1.573054766990   -0.871791518259   -2.201370379366
RB   -0.400200462181   -0.750506818084    1.138020434677
