12

 C   -0.652178502608    2.429477908041   -1.505977360807
 C    0.460163497392    1.409999908041   -1.505977360807
 O   -0.044167502608    0.143546908041   -1.505977360807
 C    0.970298497392   -0.890192091959   -1.505977360807
 O    1.657803497392    1.654492908041   -1.505977360807
 H   -0.219608502608    3.436487908041   -1.505977360807
 H   -1.284515502608    2.286905908041   -0.617362360807
 H   -1.284515502608    2.286905908041   -2.394592360807
 H    0.416201497392   -1.835316091959   -1.505977360807
 H    1.600093497392   -0.803893091959   -0.609787360807
 H    1.600093497392   -0.803893091959   -2.402167360807
RB   -0.423776228574   -0.809709207143    1.313100501551
