12

 C   -0.638659137407    2.463427121190   -1.606375851527
 C    0.473682862593    1.443949121190   -1.606375851527
 O   -0.030648137407    0.177496121190   -1.606375851527
 C    0.983817862593   -0.856242878810   -1.606375851527
 O    1.671322862593    1.688442121190   -1.606375851527
 H   -0.206089137407    3.470437121190   -1.606375851527
 H   -1.270996137407    2.320855121190   -0.717760851527
 H   -1.270996137407    2.320855121190   -2.494990851527
 H    0.429720862593   -1.801366878810   -1.606375851527
 H    1.613612862593   -0.769943878810   -0.710185851527
 H    1.613612862593   -0.769943878810   -2.502565851527
RB   -0.435564111771   -0.839310401672    1.400640534988
