12

 C   -0.611620407004    2.531325547489   -1.807172832968
 C    0.500721592996    1.511847547489   -1.807172832968
 O   -0.003609407004    0.245394547489   -1.807172832968
 C    1.010856592996   -0.788344452511   -1.807172832968
 O    1.698361592996    1.756340547489   -1.807172832968
 H   -0.179050407004    3.538335547489   -1.807172832968
 H   -1.243957407004    2.388753547489   -0.918557832968
 H   -1.243957407004    2.388753547489   -2.695787832968
 H    0.456759592996   -1.733468452511   -1.807172832968
 H    1.640651592996   -0.702045452511   -0.910982832968
 H    1.640651592996   -0.702045452511   -2.703362832968
RB   -0.459139878164   -0.898512790731    1.575720601861
