12

 C   -0.598101041803    2.565274760639   -1.907571323689
 C    0.514240958197    1.545796760639   -1.907571323689
 O    0.009909958197    0.279343760639   -1.907571323689
 C    1.024375958197   -0.754395239361   -1.907571323689
 O    1.711880958197    1.790289760639   -1.907571323689
 H   -0.165531041803    3.572284760639   -1.907571323689
 H   -1.230438041803    2.422702760639   -1.018956323689
 H   -1.230438041803    2.422702760639   -2.796186323689
 H    0.470278958197   -1.699519239361   -1.907571323689
 H    1.654170958197   -0.668096239361   -1.011381323689
 H    1.654170958197   -0.668096239361   -2.803761323689
RB   -0.470927761361   -0.928113985260    1.663260635298
