12

 C   -0.557542946200    2.667122400088   -2.208766795850
 C    0.554799053800    1.647644400088   -2.208766795850
 O    0.050468053800    0.381191400088   -2.208766795850
 C    1.064934053800   -0.652547599912   -2.208766795850
 O    1.752439053800    1.892137400088   -2.208766795850
 H   -0.124972946200    3.674132400088   -2.208766795850
 H   -1.189879946200    2.524550400088   -1.320151795850
 H   -1.189879946200    2.524550400088   -3.097381795850
 H    0.510837053800   -1.597671599912   -2.208766795850
 H    1.694729053800   -0.566248599912   -1.312576795850
 H    1.694729053800   -0.566248599912   -3.104956795850
RB   -0.506291410951   -1.016917568848    1.925880735608
