12

 C   -0.544023580999    2.701071613237   -2.309165286570
 C    0.568318419001    1.681593613237   -2.309165286570
 O    0.063987419001    0.415140613237   -2.309165286570
 C    1.078453419001   -0.618598386763   -2.309165286570
 O    1.765958419001    1.926086613237   -2.309165286570
 H   -0.111453580999    3.708081613237   -2.309165286570
 H   -1.176360580999    2.558499613237   -1.420550286570
 H   -1.176360580999    2.558499613237   -3.197780286570
 H    0.524356419001   -1.563722386763   -2.309165286570
 H    1.708248419001   -0.532299386763   -1.412975286570
 H    1.708248419001   -0.532299386763   -3.205355286570
RB   -0.518079294148   -1.046518763377    2.013420769045
