12

 C   -0.523744533198    2.751995432962   -2.459763022651
 C    0.588597466802    1.732517432962   -2.459763022651
 O    0.084266466802    0.466064432962   -2.459763022651
 C    1.098732466802   -0.567674567038   -2.459763022651
 O    1.786237466802    1.977010432962   -2.459763022651
 H   -0.091174533198    3.759005432962   -2.459763022651
 H   -1.156081533198    2.609423432962   -1.571148022651
 H   -1.156081533198    2.609423432962   -3.348378022651
 H    0.544635466802   -1.512798567038   -2.459763022651
 H    1.728527466802   -0.481375567038   -1.563573022651
 H    1.728527466802   -0.481375567038   -3.355953022651
RB   -0.535761118943   -1.090920555171    2.144730819200
