12

 C   -0.496705802796    2.819893859261   -2.660560004092
 C    0.615636197204    1.800415859261   -2.660560004092
 O    0.111305197204    0.533962859261   -2.660560004092
 C    1.125771197204   -0.499776140739   -2.660560004092
 O    1.813276197204    2.044908859261   -2.660560004092
 H   -0.064135802796    3.826903859261   -2.660560004092
 H   -1.129042802796    2.677321859261   -1.771945004092
 H   -1.129042802796    2.677321859261   -3.549175004092
 H    0.571674197204   -1.444900140739   -2.660560004092
 H    1.755566197204   -0.413477140739   -1.764370004092
 H    1.755566197204   -0.413477140739   -3.556750004092
RB   -0.559336885337   -1.150122944230    2.319810886073
