12

 C   -0.489946120195    2.836868465836   -2.710759249452
 C    0.622395879805    1.817390465836   -2.710759249452
 O    0.118064879805    0.550937465836   -2.710759249452
 C    1.132530879805   -0.482801534164   -2.710759249452
 O    1.820035879805    2.061883465836   -2.710759249452
 H   -0.057376120195    3.843878465836   -2.710759249452
 H   -1.122283120195    2.694296465836   -1.822144249452
 H   -1.122283120195    2.694296465836   -3.599374249452
 H    0.578433879805   -1.427925534164   -2.710759249452
 H    1.762325879805   -0.396502534164   -1.814569249452
 H    1.762325879805   -0.396502534164   -3.606949249452
RB   -0.565230826935   -1.164923541494    2.363580902792
