12

 C   -0.469667072394    2.887792285560   -2.861356985533
 C    0.642674927606    1.868314285560   -2.861356985533
 O    0.138343927606    0.601861285560   -2.861356985533
 C    1.152809927606   -0.431877714440   -2.861356985533
 O    1.840314927606    2.112807285560   -2.861356985533
 H   -0.037097072394    3.894802285560   -2.861356985533
 H   -1.102004072394    2.745220285560   -1.972741985533
 H   -1.102004072394    2.745220285560   -3.749971985533
 H    0.598712927606   -1.377001714440   -2.861356985533
 H    1.782604927606   -0.345578714440   -1.965166985533
 H    1.782604927606   -0.345578714440   -3.757546985533
RB   -0.582912651730   -1.209325333288    2.494890952947
