12

 C   -0.462907389793    2.904766892135   -2.911556230893
 C    0.649434610207    1.885288892135   -2.911556230893
 O    0.145103610207    0.618835892135   -2.911556230893
 C    1.159569610207   -0.414903107865   -2.911556230893
 O    1.847074610207    2.129781892135   -2.911556230893
 H   -0.030337389793    3.911776892135   -2.911556230893
 H   -1.095244389793    2.762194892135   -2.022941230893
 H   -1.095244389793    2.762194892135   -3.800171230893
 H    0.605472610207   -1.360027107865   -2.911556230893
 H    1.789364610207   -0.328604107865   -2.015366230893
 H    1.789364610207   -0.328604107865   -3.807746230893
RB   -0.588806593329   -1.224125930553    2.538660969665
