12

 C   -0.435868659391    2.972665318434   -3.112353212334
 C    0.676473340609    1.953187318434   -3.112353212334
 O    0.172142340609    0.686734318434   -3.112353212334
 C    1.186608340609   -0.347004681566   -3.112353212334
 O    1.874113340609    2.197680318434   -3.112353212334
 H   -0.003298659391    3.979675318434   -3.112353212334
 H   -1.068205659391    2.830093318434   -2.223738212334
 H   -1.068205659391    2.830093318434   -4.000968212334
 H    0.632511340609   -1.292128681566   -3.112353212334
 H    1.816403340609   -0.260705681566   -2.216163212334
 H    1.816403340609   -0.260705681566   -4.008543212334
RB   -0.612382359722   -1.283328319612    2.713741036539
