12

 C   -0.375031515986    3.125436777607   -3.564146420576
 C    0.737310484014    2.105958777607   -3.564146420576
 O    0.232979484014    0.839505777607   -3.564146420576
 C    1.247445484014   -0.194233222393   -3.564146420576
 O    1.934950484014    2.350451777607   -3.564146420576
 H    0.057538484014    4.132446777607   -3.564146420576
 H   -1.007368515986    2.982864777607   -2.675531420576
 H   -1.007368515986    2.982864777607   -4.452761420576
 H    0.693348484014   -1.139357222393   -3.564146420576
 H    1.877240484014   -0.107934222393   -2.667956420576
 H    1.877240484014   -0.107934222393   -4.460336420576
RB   -0.665427834107   -1.416533694994    3.107671187004
