12

 C   -0.368271833386    3.142411384182   -3.614345665936
 C    0.744070166614    2.122933384182   -3.614345665936
 O    0.239739166614    0.856480384182   -3.614345665936
 C    1.254205166614   -0.177258615818   -3.614345665936
 O    1.941710166614    2.367426384182   -3.614345665936
 H    0.064298166614    4.149421384182   -3.614345665936
 H   -1.000608833386    2.999839384182   -2.725730665936
 H   -1.000608833386    2.999839384182   -4.502960665936
 H    0.700108166614   -1.122382615818   -3.614345665936
 H    1.884000166614   -0.090959615818   -2.718155665936
 H    1.884000166614   -0.090959615818   -4.510535665936
RB   -0.671321775706   -1.431334292258    3.151441203722
