12

 C   -0.354752468185    3.176360597332   -3.714744156657
 C    0.757589531815    2.156882597332   -3.714744156657
 O    0.253258531815    0.890429597332   -3.714744156657
 C    1.267724531815   -0.143309402668   -3.714744156657
 O    1.955229531815    2.401375597332   -3.714744156657
 H    0.077817531815    4.183370597332   -3.714744156657
 H   -0.987089468185    3.033788597332   -2.826129156657
 H   -0.987089468185    3.033788597332   -4.603359156657
 H    0.713627531815   -1.088433402668   -3.714744156657
 H    1.897519531815   -0.057010402668   -2.818554156657
 H    1.897519531815   -0.057010402668   -4.610934156657
RB   -0.683109658902   -1.460935486788    3.238981237159
