12

 C   -0.347992785584    3.193335203906   -3.764943402017
 C    0.764349214416    2.173857203906   -3.764943402017
 O    0.260018214416    0.907404203906   -3.764943402017
 C    1.274484214416   -0.126334796094   -3.764943402017
 O    1.961989214416    2.418350203906   -3.764943402017
 H    0.084577214416    4.200345203906   -3.764943402017
 H   -0.980329785584    3.050763203906   -2.876328402017
 H   -0.980329785584    3.050763203906   -4.653558402017
 H    0.720387214416   -1.071458796094   -3.764943402017
 H    1.904279214416   -0.040035796094   -2.868753402017
 H    1.904279214416   -0.040035796094   -4.661133402017
RB   -0.689003600501   -1.475736084052    3.282751253877
