12

 C   -0.334473420383    3.227284417056   -3.865341892737
 C    0.777868579617    2.207806417056   -3.865341892737
 O    0.273537579617    0.941353417056   -3.865341892737
 C    1.288003579617   -0.092385582944   -3.865341892737
 O    1.975508579617    2.452299417056   -3.865341892737
 H    0.098096579617    4.234294417056   -3.865341892737
 H   -0.966810420383    3.084712417056   -2.976726892737
 H   -0.966810420383    3.084712417056   -4.753956892737
 H    0.733906579617   -1.037509582944   -3.865341892737
 H    1.917798579617   -0.006086582944   -2.969151892737
 H    1.917798579617   -0.006086582944   -4.761531892737
RB   -0.700791483698   -1.505337278582    3.370291287314
