12

 C   -0.327713737783    3.244259023631   -3.915541138098
 C    0.784628262217    2.224781023631   -3.915541138098
 O    0.280297262217    0.958328023631   -3.915541138098
 C    1.294763262217   -0.075410976369   -3.915541138098
 O    1.982268262217    2.469274023631   -3.915541138098
 H    0.104856262217    4.251269023631   -3.915541138098
 H   -0.960050737783    3.101687023631   -3.026926138098
 H   -0.960050737783    3.101687023631   -4.804156138098
 H    0.740666262217   -1.020534976369   -3.915541138098
 H    1.924558262217    0.010888023631   -3.019351138098
 H    1.924558262217    0.010888023631   -4.811731138098
RB   -0.706685425296   -1.520137875846    3.414061304032
