12

 C   -0.314194372582    3.278208236780   -4.015939628818
 C    0.798147627418    2.258730236780   -4.015939628818
 O    0.293816627418    0.992277236780   -4.015939628818
 C    1.308282627418   -0.041461763220   -4.015939628818
 O    1.995787627418    2.503223236780   -4.015939628818
 H    0.118375627418    4.285218236780   -4.015939628818
 H   -0.946531372582    3.135636236780   -3.127324628818
 H   -0.946531372582    3.135636236780   -4.904554628818
 H    0.754185627418   -0.986585763220   -4.015939628818
 H    1.938077627418    0.044837236780   -3.119749628818
 H    1.938077627418    0.044837236780   -4.912129628818
RB   -0.718473308493   -1.549739070376    3.501601337469
