12

 C   -0.300675007381    3.312157449930   -4.116338119539
 C    0.811666992619    2.292679449930   -4.116338119539
 O    0.307335992619    1.026226449930   -4.116338119539
 C    1.321801992619   -0.007512550070   -4.116338119539
 O    2.009306992619    2.537172449930   -4.116338119539
 H    0.131894992619    4.319167449930   -4.116338119539
 H   -0.933012007381    3.169585449930   -3.227723119539
 H   -0.933012007381    3.169585449930   -5.004953119539
 H    0.767704992619   -0.952636550070   -4.116338119539
 H    1.951596992619    0.078786449930   -3.220148119539
 H    1.951596992619    0.078786449930   -5.012528119539
RB   -0.730261191689   -1.579340264905    3.589141370906
