12

 C   -0.280395959579    3.363081269654   -4.266935855619
 C    0.831946040421    2.343603269654   -4.266935855619
 O    0.327615040421    1.077150269654   -4.266935855619
 C    1.342081040421    0.043411269654   -4.266935855619
 O    2.029586040421    2.588096269654   -4.266935855619
 H    0.152174040421    4.370091269654   -4.266935855619
 H   -0.912732959579    3.220509269654   -3.378320855619
 H   -0.912732959579    3.220509269654   -5.155550855619
 H    0.787984040421   -0.901712730346   -4.266935855619
 H    1.971876040421    0.129710269654   -3.370745855619
 H    1.971876040421    0.129710269654   -5.163125855619
RB   -0.747943016485   -1.623742056699    3.720451421061
