12

 C   -0.273636276979    3.380055876229   -4.317135100980
 C    0.838705723021    2.360577876229   -4.317135100980
 O    0.334374723021    1.094124876229   -4.317135100980
 C    1.348840723021    0.060385876229   -4.317135100980
 O    2.036345723021    2.605070876229   -4.317135100980
 H    0.158933723021    4.387065876229   -4.317135100980
 H   -0.905973276979    3.237483876229   -3.428520100980
 H   -0.905973276979    3.237483876229   -5.205750100980
 H    0.794743723021   -0.884738123771   -4.317135100980
 H    1.978635723021    0.146684876229   -3.420945100980
 H    1.978635723021    0.146684876229   -5.213325100980
RB   -0.753836958083   -1.638542653963    3.764221437779
