12

 C   -0.253357229177    3.430979695953   -4.467732837060
 C    0.858984770823    2.411501695953   -4.467732837060
 O    0.354653770823    1.145048695953   -4.467732837060
 C    1.369119770823    0.111309695953   -4.467732837060
 O    2.056624770823    2.655994695953   -4.467732837060
 H    0.179212770823    4.437989695953   -4.467732837060
 H   -0.885694229177    3.288407695953   -3.579117837060
 H   -0.885694229177    3.288407695953   -5.356347837060
 H    0.815022770823   -0.833814304047   -4.467732837060
 H    1.998914770823    0.197608695953   -3.571542837060
 H    1.998914770823    0.197608695953   -5.363922837060
RB   -0.771518782878   -1.682944445757    3.895531487934
