12

 C   -0.246597546577    3.447954302528   -4.517932082420
 C    0.865744453423    2.428476302528   -4.517932082420
 O    0.361413453423    1.162023302528   -4.517932082420
 C    1.375879453423    0.128284302528   -4.517932082420
 O    2.063384453423    2.672969302528   -4.517932082420
 H    0.185972453423    4.454964302528   -4.517932082420
 H   -0.878934546577    3.305382302528   -3.629317082420
 H   -0.878934546577    3.305382302528   -5.406547082420
 H    0.821782453423   -0.816839697472   -4.517932082420
 H    2.005674453423    0.214583302528   -3.621742082420
 H    2.005674453423    0.214583302528   -5.414122082420
RB   -0.777412724476   -1.697745043022    3.939301504653
