12

 C   -0.226318498775    3.498878122253   -4.668529818501
 C    0.886023501225    2.479400122253   -4.668529818501
 O    0.381692501225    1.212947122253   -4.668529818501
 C    1.396158501225    0.179208122253   -4.668529818501
 O    2.083663501225    2.723893122253   -4.668529818501
 H    0.206251501225    4.505888122253   -4.668529818501
 H   -0.858655498775    3.356306122253   -3.779914818501
 H   -0.858655498775    3.356306122253   -5.557144818501
 H    0.842061501225   -0.765915877747   -4.668529818501
 H    2.025953501225    0.265507122253   -3.772339818501
 H    2.025953501225    0.265507122253   -5.564719818501
RB   -0.795094549272   -1.742146834816    4.070611554808
