12

 C   -0.206039450973    3.549801941977   -4.819127554582
 C    0.906302549027    2.530323941977   -4.819127554582
 O    0.401971549027    1.263870941977   -4.819127554582
 C    1.416437549027    0.230131941977   -4.819127554582
 O    2.103942549027    2.774816941977   -4.819127554582
 H    0.226530549027    4.556811941977   -4.819127554582
 H   -0.838376450973    3.407229941977   -3.930512554582
 H   -0.838376450973    3.407229941977   -5.707742554582
 H    0.862340549027   -0.714992058023   -4.819127554582
 H    2.046232549027    0.316430941977   -3.922937554582
 H    2.046232549027    0.316430941977   -5.715317554582
RB   -0.812776374067   -1.786548626610    4.201921604963
