12

 C   -0.199279768373    3.566776548552   -4.869326799942
 C    0.913062231627    2.547298548552   -4.869326799942
 O    0.408731231627    1.280845548552   -4.869326799942
 C    1.423197231627    0.247106548552   -4.869326799942
 O    2.110702231627    2.791791548552   -4.869326799942
 H    0.233290231627    4.573786548552   -4.869326799942
 H   -0.831616768373    3.424204548552   -3.980711799942
 H   -0.831616768373    3.424204548552   -5.757941799942
 H    0.869100231627   -0.698017451448   -4.869326799942
 H    2.052992231627    0.333405548552   -3.973136799942
 H    2.052992231627    0.333405548552   -5.765516799942
RB   -0.818670315665   -1.801349223875    4.245691621681
