26

 C    0.259289631372    2.602691773822    0.000000000000
 H    0.401869631372    3.691941773822    0.000000000000
 H    0.769799631372    2.217161773822    0.896550000000
 H    0.769799631372    2.217161773822   -0.896550000000
 C   -1.228380368628    2.275161773822    0.000000000000
 H   -1.726420368628    2.687881773822   -0.892810000000
 H   -1.726420368628    2.687881773822    0.892810000000
 O   -1.381440368628    0.828831773822    0.000000000000
 C   -2.776470368628    0.428621773822    0.000000000000
 H   -3.285290368628    0.810191773822   -0.897750000000
 H   -3.285290368628    0.810191773822    0.897750000000
 H   -2.790020368628   -0.669108226178    0.000000000000
 K    0.190719631372   -0.114428226178    1.771120000000
 K    0.190719631372   -0.114428226178   -1.771120000000
 O    1.133971378487   -0.680357675460    0.000000000000
 C    2.529000978335   -0.280152596097    0.000000000000
 H    3.037818001314   -0.661721372631    0.897747484486
 H    3.037818001314   -0.661721372631   -0.897747484486
 H    2.542547003539    0.817583828370    0.000000000000
 C    0.980916187217   -2.126681798340    0.000000000000
 H    1.478952425200   -2.539405761710    0.892806270036
 H    1.478952425200   -2.539405761710   -0.892806270036
 C   -0.506755815234   -2.454210275152    0.000000000000
 H   -0.649336133731   -3.543468258955    0.000000000000
 H   -1.017266090253   -2.068681398797   -0.896552662534
 H   -1.017266090253   -2.068681398797    0.896552662534
