26

 C    0.207281169260    2.633895660177    0.000000000000
 H    0.349861169260    3.723145660177    0.000000000000
 H    0.717791169260    2.248365660177    0.896550000000
 H    0.717791169260    2.248365660177   -0.896550000000
 C   -1.280388830740    2.306365660177    0.000000000000
 H   -1.778428830740    2.719085660177   -0.892810000000
 H   -1.778428830740    2.719085660177    0.892810000000
 O   -1.433448830740    0.860035660177    0.000000000000
 C   -2.828478830740    0.459825660177    0.000000000000
 H   -3.337298830740    0.841395660177   -0.897750000000
 H   -3.337298830740    0.841395660177    0.897750000000
 H   -2.842028830740   -0.637904339823    0.000000000000
 K    0.138711169260   -0.083224339823    1.771120000000
 K    0.138711169260   -0.083224339823   -1.771120000000
 O    1.253463234032   -0.752050052611    0.000000000000
 C    2.648492833880   -0.351844973248    0.000000000000
 H    3.157309856860   -0.733413749782    0.897747484486
 H    3.157309856860   -0.733413749782   -0.897747484486
 H    2.662038859084    0.745891451219    0.000000000000
 C    1.100408042762   -2.198374175491    0.000000000000
 H    1.598444280745   -2.611098138861    0.892806270036
 H    1.598444280745   -2.611098138861   -0.892806270036
 C   -0.387263959689   -2.525902652303    0.000000000000
 H   -0.529844278186   -3.615160636106    0.000000000000
 H   -0.897774234708   -2.140373775948   -0.896552662534
 H   -0.897774234708   -2.140373775948    0.896552662534
