26

 C    0.181276938204    2.649497603355    0.000000000000
 H    0.323856938204    3.738747603355    0.000000000000
 H    0.691786938204    2.263967603355    0.896550000000
 H    0.691786938204    2.263967603355   -0.896550000000
 C   -1.306393061796    2.321967603355    0.000000000000
 H   -1.804433061796    2.734687603355   -0.892810000000
 H   -1.804433061796    2.734687603355    0.892810000000
 O   -1.459453061796    0.875637603355    0.000000000000
 C   -2.854483061796    0.475427603355    0.000000000000
 H   -3.363303061796    0.856997603355   -0.897750000000
 H   -3.363303061796    0.856997603355    0.897750000000
 H   -2.868033061796   -0.622302396645    0.000000000000
 K    0.112706938204   -0.067622396645    1.771120000000
 K    0.112706938204   -0.067622396645   -1.771120000000
 O    1.313209161805   -0.787896241186    0.000000000000
 C    2.708238761653   -0.387691161823    0.000000000000
 H    3.217055784632   -0.769259938358    0.897747484486
 H    3.217055784632   -0.769259938358   -0.897747484486
 H    2.721784786857    0.710045262644    0.000000000000
 C    1.160153970535   -2.234220364067    0.000000000000
 H    1.658190208518   -2.646944327436    0.892806270036
 H    1.658190208518   -2.646944327436   -0.892806270036
 C   -0.327518031916   -2.561748840879    0.000000000000
 H   -0.470098350414   -3.651006824681    0.000000000000
 H   -0.838028306935   -2.176219964523   -0.896552662534
 H   -0.838028306935   -2.176219964523    0.896552662534
