26

 C   -2.055086932615    3.991264716618    0.000000000000
 H   -1.912506932615    5.080514716618    0.000000000000
 H   -1.544576932615    3.605734716618    0.896550000000
 H   -1.544576932615    3.605734716618   -0.896550000000
 C   -3.542756932615    3.663734716618    0.000000000000
 H   -4.040796932615    4.076454716618   -0.892810000000
 H   -4.040796932615    4.076454716618    0.892810000000
 O   -3.695816932615    2.217404716618    0.000000000000
 C   -5.090846932615    1.817194716618    0.000000000000
 H   -5.599666932615    2.198764716618   -0.897750000000
 H   -5.599666932615    2.198764716618    0.897750000000
 H   -5.104396932615    0.719464716618    0.000000000000
 K   -2.123656932615    1.274144716618    1.771120000000
 K   -2.123656932615    1.274144716618   -1.771120000000
 O    6.451358950247   -3.870668458675    0.000000000000
 C    7.846388550095   -3.470463379311    0.000000000000
 H    8.355205573075   -3.852032155846    0.897747484486
 H    8.355205573075   -3.852032155846   -0.897747484486
 H    7.859934575299   -2.372726954844    0.000000000000
 C    6.298303758977   -5.316992581555    0.000000000000
 H    6.796339996960   -5.729716544924    0.892806270036
 H    6.796339996960   -5.729716544924   -0.892806270036
 C    4.810631756526   -5.644521058367    0.000000000000
 H    4.668051438029   -6.733779042169    0.000000000000
 H    4.300121481507   -5.258992182011   -0.896552662534
 H    4.300121481507   -5.258992182011    0.896552662534
