26

 C    0.025251551868    2.743109262419    0.000000000000
 H    0.167831551868    3.832359262419    0.000000000000
 H    0.535761551868    2.357579262419    0.896550000000
 H    0.535761551868    2.357579262419   -0.896550000000
 C   -1.462418448132    2.415579262419    0.000000000000
 H   -1.960458448132    2.828299262419   -0.892810000000
 H   -1.960458448132    2.828299262419    0.892810000000
 O   -1.615478448132    0.969249262419    0.000000000000
 C   -3.010508448132    0.569039262419    0.000000000000
 H   -3.519328448132    0.950609262419   -0.897750000000
 H   -3.519328448132    0.950609262419    0.897750000000
 H   -3.024058448132   -0.528690737581    0.000000000000
 K   -0.043318448132    0.025989262419    1.771120000000
 K   -0.043318448132    0.025989262419   -1.771120000000
 O    1.671684728440   -1.002973372639    0.000000000000
 C    3.066714328288   -0.602768293276    0.000000000000
 H    3.575531351268   -0.984337069810    0.897747484486
 H    3.575531351268   -0.984337069810   -0.897747484486
 H    3.080260353492    0.494968131191    0.000000000000
 C    1.518629537170   -2.449297495519    0.000000000000
 H    2.016665775153   -2.862021458889    0.892806270036
 H    2.016665775153   -2.862021458889   -0.892806270036
 C    0.030957534719   -2.776825972331    0.000000000000
 H   -0.111622783778   -3.866083956134    0.000000000000
 H   -0.479552740300   -2.391297095976   -0.896552662534
 H   -0.479552740300   -2.391297095976    0.896552662534
