26

 C   -0.026756910244    2.774313148774    0.000000000000
 H    0.115823089756    3.863563148774    0.000000000000
 H    0.483753089756    2.388783148774    0.896550000000
 H    0.483753089756    2.388783148774   -0.896550000000
 C   -1.514426910244    2.446783148774    0.000000000000
 H   -2.012466910244    2.859503148774   -0.892810000000
 H   -2.012466910244    2.859503148774    0.892810000000
 O   -1.667486910244    1.000453148774    0.000000000000
 C   -3.062516910244    0.600243148774    0.000000000000
 H   -3.571336910244    0.981813148774   -0.897750000000
 H   -3.571336910244    0.981813148774    0.897750000000
 H   -3.076066910244   -0.497486851226    0.000000000000
 K   -0.095326910244    0.057193148774    1.771120000000
 K   -0.095326910244    0.057193148774   -1.771120000000
 O    1.791176583986   -1.074665749790    0.000000000000
 C    3.186206183833   -0.674460670427    0.000000000000
 H    3.695023206813   -1.056029446961    0.897747484486
 H    3.695023206813   -1.056029446961   -0.897747484486
 H    3.199752209037    0.423275754040    0.000000000000
 C    1.638121392716   -2.520989872670    0.000000000000
 H    2.136157630699   -2.933713836040    0.892806270036
 H    2.136157630699   -2.933713836040   -0.892806270036
 C    0.150449390264   -2.848518349482    0.000000000000
 H    0.007869071767   -3.937776333285    0.000000000000
 H   -0.360060884754   -2.462989473127   -0.896552662534
 H   -0.360060884754   -2.462989473127    0.896552662534
