26

 C   -0.052761141300    2.789915091952    0.000000000000
 H    0.089818858700    3.879165091952    0.000000000000
 H    0.457748858700    2.404385091952    0.896550000000
 H    0.457748858700    2.404385091952   -0.896550000000
 C   -1.540431141300    2.462385091952    0.000000000000
 H   -2.038471141300    2.875105091952   -0.892810000000
 H   -2.038471141300    2.875105091952    0.892810000000
 O   -1.693491141300    1.016055091952    0.000000000000
 C   -3.088521141300    0.615845091952    0.000000000000
 H   -3.597341141300    0.997415091952   -0.897750000000
 H   -3.597341141300    0.997415091952    0.897750000000
 H   -3.102071141300   -0.481884908048    0.000000000000
 K   -0.121331141300    0.072795091952    1.771120000000
 K   -0.121331141300    0.072795091952   -1.771120000000
 O    1.850922511758   -1.110511938365    0.000000000000
 C    3.245952111606   -0.710306859002    0.000000000000
 H    3.754769134585   -1.091875635537    0.897747484486
 H    3.754769134585   -1.091875635537   -0.897747484486
 H    3.259498136810    0.387429565465    0.000000000000
 C    1.697867320488   -2.556836061246    0.000000000000
 H    2.195903558471   -2.969560024615    0.892806270036
 H    2.195903558471   -2.969560024615   -0.892806270036
 C    0.210195318037   -2.884364538058    0.000000000000
 H    0.067614999540   -3.973622521860    0.000000000000
 H   -0.300314956982   -2.498835661702   -0.896552662534
 H   -0.300314956982   -2.498835661702    0.896552662534
