26

 C   -0.078765372356    2.805517035129    0.000000000000
 H    0.063814627644    3.894767035129    0.000000000000
 H    0.431744627644    2.419987035129    0.896550000000
 H    0.431744627644    2.419987035129   -0.896550000000
 C   -1.566435372356    2.477987035129    0.000000000000
 H   -2.064475372356    2.890707035129   -0.892810000000
 H   -2.064475372356    2.890707035129    0.892810000000
 O   -1.719495372356    1.031657035129    0.000000000000
 C   -3.114525372356    0.631447035129    0.000000000000
 H   -3.623345372356    1.013017035129   -0.897750000000
 H   -3.623345372356    1.013017035129    0.897750000000
 H   -3.128075372356   -0.466282964871    0.000000000000
 K   -0.147335372356    0.088397035129    1.771120000000
 K   -0.147335372356    0.088397035129   -1.771120000000
 O    1.910668439531   -1.146358126941    0.000000000000
 C    3.305698039379   -0.746153047578    0.000000000000
 H    3.814515062358   -1.127721824112    0.897747484486
 H    3.814515062358   -1.127721824112   -0.897747484486
 H    3.319244064583    0.351583376889    0.000000000000
 C    1.757613248261   -2.592682249821    0.000000000000
 H    2.255649486244   -3.005406213191    0.892806270036
 H    2.255649486244   -3.005406213191   -0.892806270036
 C    0.269941245809   -2.920210726633    0.000000000000
 H    0.127360927312   -4.009468710436    0.000000000000
 H   -0.240569029209   -2.534681850277   -0.896552662534
 H   -0.240569029209   -2.534681850277    0.896552662534
