26

 C   -0.104769603412    2.821118978307    0.000000000000
 H    0.037810396588    3.910368978307    0.000000000000
 H    0.405740396588    2.435588978307    0.896550000000
 H    0.405740396588    2.435588978307   -0.896550000000
 C   -1.592439603412    2.493588978307    0.000000000000
 H   -2.090479603412    2.906308978307   -0.892810000000
 H   -2.090479603412    2.906308978307    0.892810000000
 O   -1.745499603412    1.047258978307    0.000000000000
 C   -3.140529603412    0.647048978307    0.000000000000
 H   -3.649349603412    1.028618978307   -0.897750000000
 H   -3.649349603412    1.028618978307    0.897750000000
 H   -3.154079603412   -0.450681021693    0.000000000000
 K   -0.173339603412    0.103998978307    1.771120000000
 K   -0.173339603412    0.103998978307   -1.771120000000
 O    1.970414367303   -1.182204315516    0.000000000000
 C    3.365443967151   -0.781999236153    0.000000000000
 H    3.874260990131   -1.163568012687    0.897747484486
 H    3.874260990131   -1.163568012687   -0.897747484486
 H    3.378989992355    0.315737188314    0.000000000000
 C    1.817359176033   -2.628528438397    0.000000000000
 H    2.315395414016   -3.041252401766    0.892806270036
 H    2.315395414016   -3.041252401766   -0.892806270036
 C    0.329687173582   -2.956056915209    0.000000000000
 H    0.187106855085   -4.045314899011    0.000000000000
 H   -0.180823101437   -2.570528038853   -0.896552662534
 H   -0.180823101437   -2.570528038853    0.896552662534
