26

 C   -0.182782296580    2.867924807839    0.000000000000
 H   -0.040202296580    3.957174807839    0.000000000000
 H    0.327727703420    2.482394807839    0.896550000000
 H    0.327727703420    2.482394807839   -0.896550000000
 C   -1.670452296580    2.540394807839    0.000000000000
 H   -2.168492296580    2.953114807839   -0.892810000000
 H   -2.168492296580    2.953114807839    0.892810000000
 O   -1.823512296580    1.094064807839    0.000000000000
 C   -3.218542296580    0.693854807839    0.000000000000
 H   -3.727362296580    1.075424807839   -0.897750000000
 H   -3.727362296580    1.075424807839    0.897750000000
 H   -3.232092296580   -0.403875192161    0.000000000000
 K   -0.251352296580    0.150804807839    1.771120000000
 K   -0.251352296580    0.150804807839   -1.771120000000
 O    2.149652150621   -1.289742881243    0.000000000000
 C    3.544681750469   -0.889537801879    0.000000000000
 H    4.053498773448   -1.271106578414    0.897747484486
 H    4.053498773448   -1.271106578414   -0.897747484486
 H    3.558227775673    0.208198622587    0.000000000000
 C    1.996596959351   -2.736067004123    0.000000000000
 H    2.494633197334   -3.148790967492    0.892806270036
 H    2.494633197334   -3.148790967492   -0.892806270036
 C    0.508924956900   -3.063595480935    0.000000000000
 H    0.366344638403   -4.152853464737    0.000000000000
 H   -0.001585318119   -2.678066604579   -0.896552662534
 H   -0.001585318119   -2.678066604579    0.896552662534
