26

 C   -0.208786527636    2.883526751017    0.000000000000
 H   -0.066206527636    3.972776751017    0.000000000000
 H    0.301723472364    2.497996751017    0.896550000000
 H    0.301723472364    2.497996751017   -0.896550000000
 C   -1.696456527636    2.555996751017    0.000000000000
 H   -2.194496527636    2.968716751017   -0.892810000000
 H   -2.194496527636    2.968716751017    0.892810000000
 O   -1.849516527636    1.109666751017    0.000000000000
 C   -3.244546527636    0.709456751017    0.000000000000
 H   -3.753366527636    1.091026751017   -0.897750000000
 H   -3.753366527636    1.091026751017    0.897750000000
 H   -3.258096527636   -0.388273248983    0.000000000000
 K   -0.277356527636    0.166406751017    1.771120000000
 K   -0.277356527636    0.166406751017   -1.771120000000
 O    2.209398078394   -1.325589069818    0.000000000000
 C    3.604427678242   -0.925383990455    0.000000000000
 H    4.113244701221   -1.306952766989    0.897747484486
 H    4.113244701221   -1.306952766989   -0.897747484486
 H    3.617973703446    0.172352434012    0.000000000000
 C    2.056342887124   -2.771913192698    0.000000000000
 H    2.554379125107   -3.184637156068    0.892806270036
 H    2.554379125107   -3.184637156068   -0.892806270036
 C    0.568670884672   -3.099441669510    0.000000000000
 H    0.426090566175   -4.188699653313    0.000000000000
 H    0.058160609654   -2.713912793155   -0.896552662534
 H    0.058160609654   -2.713912793155    0.896552662534
