26

 C   -0.286799220804    2.930332580549    0.000000000000
 H   -0.144219220804    4.019582580549    0.000000000000
 H    0.223710779196    2.544802580549    0.896550000000
 H    0.223710779196    2.544802580549   -0.896550000000
 C   -1.774469220804    2.602802580549    0.000000000000
 H   -2.272509220804    3.015522580549   -0.892810000000
 H   -2.272509220804    3.015522580549    0.892810000000
 O   -1.927529220804    1.156472580549    0.000000000000
 C   -3.322559220804    0.756262580549    0.000000000000
 H   -3.831379220804    1.137832580549   -0.897750000000
 H   -3.831379220804    1.137832580549    0.897750000000
 H   -3.336109220804   -0.341467419451    0.000000000000
 K   -0.355369220804    0.213212580549    1.771120000000
 K   -0.355369220804    0.213212580549   -1.771120000000
 O    2.388635861711   -1.433127635544    0.000000000000
 C    3.783665461559   -1.032922556181    0.000000000000
 H    4.292482484539   -1.414491332716    0.897747484486
 H    4.292482484539   -1.414491332716   -0.897747484486
 H    3.797211486763    0.064813868286    0.000000000000
 C    2.235580670441   -2.879451758425    0.000000000000
 H    2.733616908424   -3.292175721794    0.892806270036
 H    2.733616908424   -3.292175721794   -0.892806270036
 C    0.747908667990   -3.206980235237    0.000000000000
 H    0.605328349493   -4.296238219039    0.000000000000
 H    0.237398392971   -2.821451358881   -0.896552662534
 H    0.237398392971   -2.821451358881    0.896552662534
