26

 C   -0.390816145028    2.992740353259    0.000000000000
 H   -0.248236145028    4.081990353259    0.000000000000
 H    0.119693854972    2.607210353259    0.896550000000
 H    0.119693854972    2.607210353259   -0.896550000000
 C   -1.878486145028    2.665210353259    0.000000000000
 H   -2.376526145028    3.077930353259   -0.892810000000
 H   -2.376526145028    3.077930353259    0.892810000000
 O   -2.031546145028    1.218880353259    0.000000000000
 C   -3.426576145028    0.818670353259    0.000000000000
 H   -3.935396145028    1.200240353259   -0.897750000000
 H   -3.935396145028    1.200240353259    0.897750000000
 H   -3.440126145028   -0.279059646741    0.000000000000
 K   -0.459386145028    0.275620353259    1.771120000000
 K   -0.459386145028    0.275620353259   -1.771120000000
 O    2.627619572802   -1.576512389846    0.000000000000
 C    4.022649172650   -1.176307310483    0.000000000000
 H    4.531466195629   -1.557876087017    0.897747484486
 H    4.531466195629   -1.557876087017   -0.897747484486
 H    4.036195197854   -0.078570886016    0.000000000000
 C    2.474564381532   -3.022836512726    0.000000000000
 H    2.972600619515   -3.435560476096    0.892806270036
 H    2.972600619515   -3.435560476096   -0.892806270036
 C    0.986892379081   -3.350364989538    0.000000000000
 H    0.844312060583   -4.439622973341    0.000000000000
 H    0.476382104062   -2.964836113183   -0.896552662534
 H    0.476382104062   -2.964836113183    0.896552662534
