26

 C   -0.416820376084    3.008342296437    0.000000000000
 H   -0.274240376084    4.097592296437    0.000000000000
 H    0.093689623916    2.622812296437    0.896550000000
 H    0.093689623916    2.622812296437   -0.896550000000
 C   -1.904490376084    2.680812296437    0.000000000000
 H   -2.402530376084    3.093532296437   -0.892810000000
 H   -2.402530376084    3.093532296437    0.892810000000
 O   -2.057550376084    1.234482296437    0.000000000000
 C   -3.452580376084    0.834272296437    0.000000000000
 H   -3.961400376084    1.215842296437   -0.897750000000
 H   -3.961400376084    1.215842296437    0.897750000000
 H   -3.466130376084   -0.263457703563    0.000000000000
 K   -0.485390376084    0.291222296437    1.771120000000
 K   -0.485390376084    0.291222296437   -1.771120000000
 O    2.687365500574   -1.612358578422    0.000000000000
 C    4.082395100422   -1.212153499058    0.000000000000
 H    4.591212123402   -1.593722275593    0.897747484486
 H    4.591212123402   -1.593722275593   -0.897747484486
 H    4.095941125626   -0.114417074592    0.000000000000
 C    2.534310309304   -3.058682701302    0.000000000000
 H    3.032346547287   -3.471406664671    0.892806270036
 H    3.032346547287   -3.471406664671   -0.892806270036
 C    1.046638306853   -3.386211178114    0.000000000000
 H    0.904057988356   -4.475469161916    0.000000000000
 H    0.536128031834   -3.000682301758   -0.896552662534
 H    0.536128031834   -3.000682301758    0.896552662534
