26

 C   -0.520837300309    3.070750069147    0.000000000000
 H   -0.378257300309    4.160000069147    0.000000000000
 H   -0.010327300309    2.685220069147    0.896550000000
 H   -0.010327300309    2.685220069147   -0.896550000000
 C   -2.008507300309    2.743220069147    0.000000000000
 H   -2.506547300309    3.155940069147   -0.892810000000
 H   -2.506547300309    3.155940069147    0.892810000000
 O   -2.161567300309    1.296890069147    0.000000000000
 C   -3.556597300309    0.896680069147    0.000000000000
 H   -4.065417300309    1.278250069147   -0.897750000000
 H   -4.065417300309    1.278250069147    0.897750000000
 H   -3.570147300309   -0.201049930853    0.000000000000
 K   -0.589407300309    0.353630069147    1.771120000000
 K   -0.589407300309    0.353630069147   -1.771120000000
 O    2.926349211665   -1.755743332723    0.000000000000
 C    4.321378811513   -1.355538253360    0.000000000000
 H    4.830195834492   -1.737107029895    0.897747484486
 H    4.830195834492   -1.737107029895   -0.897747484486
 H    4.334924836717   -0.257801828893    0.000000000000
 C    2.773294020395   -3.202067455604    0.000000000000
 H    3.271330258378   -3.614791418973    0.892806270036
 H    3.271330258378   -3.614791418973   -0.892806270036
 C    1.285622017943   -3.529595932416    0.000000000000
 H    1.143041699446   -4.618853916218    0.000000000000
 H    0.775111742925   -3.144067056060   -0.896552662534
 H    0.775111742925   -3.144067056060    0.896552662534
