26

 C   -0.650858455589    3.148759785034    0.000000000000
 H   -0.508278455589    4.238009785034    0.000000000000
 H   -0.140348455589    2.763229785034    0.896550000000
 H   -0.140348455589    2.763229785034   -0.896550000000
 C   -2.138528455589    2.821229785034    0.000000000000
 H   -2.636568455589    3.233949785034   -0.892810000000
 H   -2.636568455589    3.233949785034    0.892810000000
 O   -2.291588455589    1.374899785034    0.000000000000
 C   -3.686618455589    0.974689785034    0.000000000000
 H   -4.195438455589    1.356259785034   -0.897750000000
 H   -4.195438455589    1.356259785034    0.897750000000
 H   -3.700168455589   -0.123040214966    0.000000000000
 K   -0.719428455589    0.431639785034    1.771120000000
 K   -0.719428455589    0.431639785034   -1.771120000000
 O    3.225078850528   -1.934974275601    0.000000000000
 C    4.620108450376   -1.534769196237    0.000000000000
 H    5.128925473355   -1.916337972772    0.897747484486
 H    5.128925473355   -1.916337972772   -0.897747484486
 H    4.633654475580   -0.437032771770    0.000000000000
 C    3.072023659258   -3.381298398481    0.000000000000
 H    3.570059897241   -3.794022361850    0.892806270036
 H    3.570059897241   -3.794022361850   -0.892806270036
 C    1.584351656806   -3.708826875293    0.000000000000
 H    1.441771338309   -4.798084859095    0.000000000000
 H    1.073841381788   -3.323297998937   -0.896552662534
 H    1.073841381788   -3.323297998937    0.896552662534
