26

 C   -0.884896535093    3.289177273631    0.000000000000
 H   -0.742316535093    4.378427273631    0.000000000000
 H   -0.374386535093    2.903647273631    0.896550000000
 H   -0.374386535093    2.903647273631   -0.896550000000
 C   -2.372566535093    2.961647273631    0.000000000000
 H   -2.870606535093    3.374367273631   -0.892810000000
 H   -2.870606535093    3.374367273631    0.892810000000
 O   -2.525626535093    1.515317273631    0.000000000000
 C   -3.920656535093    1.115107273631    0.000000000000
 H   -4.429476535093    1.496677273631   -0.897750000000
 H   -4.429476535093    1.496677273631    0.897750000000
 H   -3.934206535093    0.017377273631    0.000000000000
 K   -0.953466535093    0.572057273631    1.771120000000
 K   -0.953466535093    0.572057273631   -1.771120000000
 O    3.762792200481   -2.257589972780    0.000000000000
 C    5.157821800329   -1.857384893416    0.000000000000
 H    5.666638823308   -2.238953669951    0.897747484486
 H    5.666638823308   -2.238953669951   -0.897747484486
 H    5.171367825533   -0.759648468949    0.000000000000
 C    3.609737009211   -3.703914095660    0.000000000000
 H    4.107773247194   -4.116638059029    0.892806270036
 H    4.107773247194   -4.116638059029   -0.892806270036
 C    2.122065006760   -4.031442572472    0.000000000000
 H    1.979484688262   -5.120700556274    0.000000000000
 H    1.611554731741   -3.645913696116   -0.896552662534
 H    1.611554731741   -3.645913696116    0.896552662534
