26

 C   -0.910900766149    3.304779216809    0.000000000000
 H   -0.768320766149    4.394029216809    0.000000000000
 H   -0.400390766149    2.919249216809    0.896550000000
 H   -0.400390766149    2.919249216809   -0.896550000000
 C   -2.398570766149    2.977249216809    0.000000000000
 H   -2.896610766149    3.389969216809   -0.892810000000
 H   -2.896610766149    3.389969216809    0.892810000000
 O   -2.551630766149    1.530919216809    0.000000000000
 C   -3.946660766149    1.130709216809    0.000000000000
 H   -4.455480766149    1.512279216809   -0.897750000000
 H   -4.455480766149    1.512279216809    0.897750000000
 H   -3.960210766149    0.032979216809    0.000000000000
 K   -0.979470766149    0.587659216809    1.771120000000
 K   -0.979470766149    0.587659216809   -1.771120000000
 O    3.822538128254   -2.293436161355    0.000000000000
 C    5.217567728101   -1.893231081992    0.000000000000
 H    5.726384751081   -2.274799858526    0.897747484486
 H    5.726384751081   -2.274799858526   -0.897747484486
 H    5.231113753305   -0.795494657525    0.000000000000
 C    3.669482936983   -3.739760284235    0.000000000000
 H    4.167519174966   -4.152484247605    0.892806270036
 H    4.167519174966   -4.152484247605   -0.892806270036
 C    2.181810934532   -4.067288761047    0.000000000000
 H    2.039230616035   -5.156546744850    0.000000000000
 H    1.671300659514   -3.681759884692   -0.896552662534
 H    1.671300659514   -3.681759884692    0.896552662534
