26

 C   -1.014917690373    3.367186989519    0.000000000000
 H   -0.872337690373    4.456436989519    0.000000000000
 H   -0.504407690373    2.981656989519    0.896550000000
 H   -0.504407690373    2.981656989519   -0.896550000000
 C   -2.502587690373    3.039656989519    0.000000000000
 H   -3.000627690373    3.452376989519   -0.892810000000
 H   -3.000627690373    3.452376989519    0.892810000000
 O   -2.655647690373    1.593326989519    0.000000000000
 C   -4.050677690373    1.193116989519    0.000000000000
 H   -4.559497690373    1.574686989519   -0.897750000000
 H   -4.559497690373    1.574686989519    0.897750000000
 H   -4.064227690373    0.095386989519    0.000000000000
 K   -1.083487690373    0.650066989519    1.771120000000
 K   -1.083487690373    0.650066989519   -1.771120000000
 O    4.061521839344   -2.436820915657    0.000000000000
 C    5.456551439192   -2.036615836294    0.000000000000
 H    5.965368462171   -2.418184612828    0.897747484486
 H    5.965368462171   -2.418184612828   -0.897747484486
 H    5.470097464396   -0.938879411827    0.000000000000
 C    3.908466648074   -3.883145038537    0.000000000000
 H    4.406502886057   -4.295869001907    0.892806270036
 H    4.406502886057   -4.295869001907   -0.892806270036
 C    2.420794645623   -4.210673515349    0.000000000000
 H    2.278214327125   -5.299931499151    0.000000000000
 H    1.910284370604   -3.825144638993   -0.896552662534
 H    1.910284370604   -3.825144638993    0.896552662534
