26

 C   -1.066926152485    3.398390875874    0.000000000000
 H   -0.924346152485    4.487640875874    0.000000000000
 H   -0.556416152485    3.012860875874    0.896550000000
 H   -0.556416152485    3.012860875874   -0.896550000000
 C   -2.554596152485    3.070860875874    0.000000000000
 H   -3.052636152485    3.483580875874   -0.892810000000
 H   -3.052636152485    3.483580875874    0.892810000000
 O   -2.707656152485    1.624530875874    0.000000000000
 C   -4.102686152485    1.224320875874    0.000000000000
 H   -4.611506152485    1.605890875874   -0.897750000000
 H   -4.611506152485    1.605890875874    0.897750000000
 H   -4.116236152485    0.126590875874    0.000000000000
 K   -1.135496152485    0.681270875874    1.771120000000
 K   -1.135496152485    0.681270875874   -1.771120000000
 O    4.181013694889   -2.508513292808    0.000000000000
 C    5.576043294737   -2.108308213444    0.000000000000
 H    6.084860317716   -2.489876989979    0.897747484486
 H    6.084860317716   -2.489876989979   -0.897747484486
 H    5.589589319941   -1.010571788978    0.000000000000
 C    4.027958503619   -3.954837415688    0.000000000000
 H    4.525994741602   -4.367561379058    0.892806270036
 H    4.525994741602   -4.367561379058   -0.892806270036
 C    2.540286501168   -4.282365892500    0.000000000000
 H    2.397706182671   -5.371623876302    0.000000000000
 H    2.029776226149   -3.896837016144   -0.896552662534
 H    2.029776226149   -3.896837016144    0.896552662534
