26

 C   -1.248955769878    3.507604478116    0.000000000000
 H   -1.106375769878    4.596854478116    0.000000000000
 H   -0.738445769878    3.122074478116    0.896550000000
 H   -0.738445769878    3.122074478116   -0.896550000000
 C   -2.736625769878    3.180074478116    0.000000000000
 H   -3.234665769878    3.592794478116   -0.892810000000
 H   -3.234665769878    3.592794478116    0.892810000000
 O   -2.889685769878    1.733744478116    0.000000000000
 C   -4.284715769878    1.333534478116    0.000000000000
 H   -4.793535769878    1.715104478116   -0.897750000000
 H   -4.793535769878    1.715104478116    0.897750000000
 H   -4.298265769878    0.235804478116    0.000000000000
 K   -1.317525769878    0.790484478116    1.771120000000
 K   -1.317525769878    0.790484478116   -1.771120000000
 O    4.599235189297   -2.759436612836    0.000000000000
 C    5.994264789145   -2.359231533473    0.000000000000
 H    6.503081812124   -2.740800310007    0.897747484486
 H    6.503081812124   -2.740800310007   -0.897747484486
 H    6.007810814349   -1.261495109006    0.000000000000
 C    4.446179998027   -4.205760735716    0.000000000000
 H    4.944216236010   -4.618484699086    0.892806270036
 H    4.944216236010   -4.618484699086   -0.892806270036
 C    2.958507995576   -4.533289212528    0.000000000000
 H    2.815927677079   -5.622547196330    0.000000000000
 H    2.447997720557   -4.147760336172   -0.896552662534
 H    2.447997720557   -4.147760336172    0.896552662534
