26

 C   -1.274960000934    3.523206421294    0.000000000000
 H   -1.132380000934    4.612456421294    0.000000000000
 H   -0.764450000934    3.137676421294    0.896550000000
 H   -0.764450000934    3.137676421294   -0.896550000000
 C   -2.762630000934    3.195676421294    0.000000000000
 H   -3.260670000934    3.608396421294   -0.892810000000
 H   -3.260670000934    3.608396421294    0.892810000000
 O   -2.915690000934    1.749346421294    0.000000000000
 C   -4.310720000934    1.349136421294    0.000000000000
 H   -4.819540000934    1.730706421294   -0.897750000000
 H   -4.819540000934    1.730706421294    0.897750000000
 H   -4.324270000934    0.251406421294    0.000000000000
 K   -1.343530000934    0.806086421294    1.771120000000
 K   -1.343530000934    0.806086421294   -1.771120000000
 O    4.658981117070   -2.795282801411    0.000000000000
 C    6.054010716918   -2.395077722048    0.000000000000
 H    6.562827739897   -2.776646498582    0.897747484486
 H    6.562827739897   -2.776646498582   -0.897747484486
 H    6.067556742122   -1.297341297581    0.000000000000
 C    4.505925925800   -4.241606924292    0.000000000000
 H    5.003962163783   -4.654330887661    0.892806270036
 H    5.003962163783   -4.654330887661   -0.892806270036
 C    3.018253923348   -4.569135401104    0.000000000000
 H    2.875673604851   -5.658393384906    0.000000000000
 H    2.507743648330   -4.183606524748   -0.896552662534
 H    2.507743648330   -4.183606524748    0.896552662534
