26

 C   -1.535002311494    3.679225853068    0.000000000000
 H   -1.392422311494    4.768475853068    0.000000000000
 H   -1.024492311494    3.293695853068    0.896550000000
 H   -1.024492311494    3.293695853068   -0.896550000000
 C   -3.022672311494    3.351695853068    0.000000000000
 H   -3.520712311494    3.764415853068   -0.892810000000
 H   -3.520712311494    3.764415853068    0.892810000000
 O   -3.175732311494    1.905365853068    0.000000000000
 C   -4.570762311494    1.505155853068    0.000000000000
 H   -5.079582311494    1.886725853068   -0.897750000000
 H   -5.079582311494    1.886725853068    0.897750000000
 H   -4.584312311494    0.407425853068    0.000000000000
 K   -1.603572311494    0.962105853068    1.771120000000
 K   -1.603572311494    0.962105853068   -1.771120000000
 O    5.256440394796   -3.153744687166    0.000000000000
 C    6.651469994644   -2.753539607802    0.000000000000
 H    7.160287017623   -3.135108384337    0.897747484486
 H    7.160287017623   -3.135108384337   -0.897747484486
 H    6.665016019848   -1.655803183336    0.000000000000
 C    5.103385203526   -4.600068810046    0.000000000000
 H    5.601421441509   -5.012792773416    0.892806270036
 H    5.601421441509   -5.012792773416   -0.892806270036
 C    3.615713201074   -4.927597286858    0.000000000000
 H    3.473132882577   -6.016855270660    0.000000000000
 H    3.105202926056   -4.542068410502   -0.896552662534
 H    3.105202926056   -4.542068410502    0.896552662534
