26

 C   -1.587010773606    3.710429739423    0.000000000000
 H   -1.444430773606    4.799679739423    0.000000000000
 H   -1.076500773606    3.324899739423    0.896550000000
 H   -1.076500773606    3.324899739423   -0.896550000000
 C   -3.074680773606    3.382899739423    0.000000000000
 H   -3.572720773606    3.795619739423   -0.892810000000
 H   -3.572720773606    3.795619739423    0.892810000000
 O   -3.227740773606    1.936569739423    0.000000000000
 C   -4.622770773606    1.536359739423    0.000000000000
 H   -5.131590773606    1.917929739423   -0.897750000000
 H   -5.131590773606    1.917929739423    0.897750000000
 H   -4.636320773606    0.438629739423    0.000000000000
 K   -1.655580773606    0.993309739423    1.771120000000
 K   -1.655580773606    0.993309739423   -1.771120000000
 O    5.375932250341   -3.225437064317    0.000000000000
 C    6.770961850189   -2.825231984953    0.000000000000
 H    7.279778873168   -3.206800761488    0.897747484486
 H    7.279778873168   -3.206800761488   -0.897747484486
 H    6.784507875393   -1.727495560486    0.000000000000
 C    5.222877059071   -4.671761187197    0.000000000000
 H    5.720913297054   -5.084485150566    0.892806270036
 H    5.720913297054   -5.084485150566   -0.892806270036
 C    3.735205056619   -4.999289664009    0.000000000000
 H    3.592624738122   -6.088547647811    0.000000000000
 H    3.224694781601   -4.613760787653   -0.896552662534
 H    3.224694781601   -4.613760787653    0.896552662534
