26

 C   -1.613015004662    3.726031682601    0.000000000000
 H   -1.470435004662    4.815281682601    0.000000000000
 H   -1.102505004662    3.340501682601    0.896550000000
 H   -1.102505004662    3.340501682601   -0.896550000000
 C   -3.100685004662    3.398501682601    0.000000000000
 H   -3.598725004662    3.811221682601   -0.892810000000
 H   -3.598725004662    3.811221682601    0.892810000000
 O   -3.253745004662    1.952171682601    0.000000000000
 C   -4.648775004662    1.551961682601    0.000000000000
 H   -5.157595004662    1.933531682601   -0.897750000000
 H   -5.157595004662    1.933531682601    0.897750000000
 H   -4.662325004662    0.454231682601    0.000000000000
 K   -1.681585004662    1.008911682601    1.771120000000
 K   -1.681585004662    1.008911682601   -1.771120000000
 O    5.435678178113   -3.261283252892    0.000000000000
 C    6.830707777961   -2.861078173529    0.000000000000
 H    7.339524800941   -3.242646950063    0.897747484486
 H    7.339524800941   -3.242646950063   -0.897747484486
 H    6.844253803165   -1.763341749062    0.000000000000
 C    5.282622986843   -4.707607375772    0.000000000000
 H    5.780659224826   -5.120331339142    0.892806270036
 H    5.780659224826   -5.120331339142   -0.892806270036
 C    3.794950984392   -5.035135852584    0.000000000000
 H    3.652370665895   -6.124393836387    0.000000000000
 H    3.284440709373   -4.649606976229   -0.896552662534
 H    3.284440709373   -4.649606976229    0.896552662534
