26

 C   -1.691027697830    3.772837512133    0.000000000000
 H   -1.548447697830    4.862087512133    0.000000000000
 H   -1.180517697830    3.387307512133    0.896550000000
 H   -1.180517697830    3.387307512133   -0.896550000000
 C   -3.178697697830    3.445307512133    0.000000000000
 H   -3.676737697830    3.858027512133   -0.892810000000
 H   -3.676737697830    3.858027512133    0.892810000000
 O   -3.331757697830    1.998977512133    0.000000000000
 C   -4.726787697830    1.598767512133    0.000000000000
 H   -5.235607697830    1.980337512133   -0.897750000000
 H   -5.235607697830    1.980337512133    0.897750000000
 H   -4.740337697830    0.501037512133    0.000000000000
 K   -1.759597697830    1.055717512133    1.771120000000
 K   -1.759597697830    1.055717512133   -1.771120000000
 O    5.614915961431   -3.368821818618    0.000000000000
 C    7.009945561279   -2.968616739255    0.000000000000
 H    7.518762584258   -3.350185515790    0.897747484486
 H    7.518762584258   -3.350185515790   -0.897747484486
 H    7.023491586483   -1.870880314788    0.000000000000
 C    5.461860770161   -4.815145941499    0.000000000000
 H    5.959897008144   -5.227869904868    0.892806270036
 H    5.959897008144   -5.227869904868   -0.892806270036
 C    3.974188767710   -5.142674418311    0.000000000000
 H    3.831608449213   -6.231932402113    0.000000000000
 H    3.463678492691   -4.757145541955   -0.896552662534
 H    3.463678492691   -4.757145541955    0.896552662534
