26

 C   -1.769040390998    3.819643341666    0.000000000000
 H   -1.626460390998    4.908893341666    0.000000000000
 H   -1.258530390998    3.434113341666    0.896550000000
 H   -1.258530390998    3.434113341666   -0.896550000000
 C   -3.256710390998    3.492113341666    0.000000000000
 H   -3.754750390998    3.904833341666   -0.892810000000
 H   -3.754750390998    3.904833341666    0.892810000000
 O   -3.409770390998    2.045783341666    0.000000000000
 C   -4.804800390998    1.645573341666    0.000000000000
 H   -5.313620390998    2.027143341666   -0.897750000000
 H   -5.313620390998    2.027143341666    0.897750000000
 H   -4.818350390998    0.547843341666    0.000000000000
 K   -1.837610390998    1.102523341666    1.771120000000
 K   -1.837610390998    1.102523341666   -1.771120000000
 O    5.794153744749   -3.476360384345    0.000000000000
 C    7.189183344597   -3.076155304981    0.000000000000
 H    7.698000367576   -3.457724081516    0.897747484486
 H    7.698000367576   -3.457724081516   -0.897747484486
 H    7.202729369801   -1.978418880515    0.000000000000
 C    5.641098553479   -4.922684507225    0.000000000000
 H    6.139134791462   -5.335408470595    0.892806270036
 H    6.139134791462   -5.335408470595   -0.892806270036
 C    4.153426551028   -5.250212984037    0.000000000000
 H    4.010846232530   -6.339470967839    0.000000000000
 H    3.642916276009   -4.864684107681   -0.896552662534
 H    3.642916276009   -4.864684107681    0.896552662534
