26

 C   -1.821048853110    3.850847228021    0.000000000000
 H   -1.678468853110    4.940097228021    0.000000000000
 H   -1.310538853110    3.465317228021    0.896550000000
 H   -1.310538853110    3.465317228021   -0.896550000000
 C   -3.308718853110    3.523317228021    0.000000000000
 H   -3.806758853110    3.936037228021   -0.892810000000
 H   -3.806758853110    3.936037228021    0.892810000000
 O   -3.461778853110    2.076987228021    0.000000000000
 C   -4.856808853110    1.676777228021    0.000000000000
 H   -5.365628853110    2.058347228021   -0.897750000000
 H   -5.365628853110    2.058347228021    0.897750000000
 H   -4.870358853110    0.579047228021    0.000000000000
 K   -1.889618853110    1.133727228021    1.771120000000
 K   -1.889618853110    1.133727228021   -1.771120000000
 O    5.913645600294   -3.548052761496    0.000000000000
 C    7.308675200142   -3.147847682132    0.000000000000
 H    7.817492223121   -3.529416458667    0.897747484486
 H    7.817492223121   -3.529416458667   -0.897747484486
 H    7.322221225346   -2.050111257665    0.000000000000
 C    5.760590409024   -4.994376884376    0.000000000000
 H    6.258626647007   -5.407100847745    0.892806270036
 H    6.258626647007   -5.407100847745   -0.892806270036
 C    4.272918406573   -5.321905361188    0.000000000000
 H    4.130338088076   -6.411163344990    0.000000000000
 H    3.762408131554   -4.936376484832   -0.896552662534
 H    3.762408131554   -4.936376484832    0.896552662534
