26

 C   -1.873057315222    3.882051114376    0.000000000000
 H   -1.730477315222    4.971301114376    0.000000000000
 H   -1.362547315222    3.496521114376    0.896550000000
 H   -1.362547315222    3.496521114376   -0.896550000000
 C   -3.360727315222    3.554521114376    0.000000000000
 H   -3.858767315222    3.967241114376   -0.892810000000
 H   -3.858767315222    3.967241114376    0.892810000000
 O   -3.513787315222    2.108191114376    0.000000000000
 C   -4.908817315222    1.707981114376    0.000000000000
 H   -5.417637315222    2.089551114376   -0.897750000000
 H   -5.417637315222    2.089551114376    0.897750000000
 H   -4.922367315222    0.610251114376    0.000000000000
 K   -1.941627315222    1.164931114376    1.771120000000
 K   -1.941627315222    1.164931114376   -1.771120000000
 O    6.033137455839   -3.619745138647    0.000000000000
 C    7.428167055687   -3.219540059283    0.000000000000
 H    7.936984078667   -3.601108835818    0.897747484486
 H    7.936984078667   -3.601108835818   -0.897747484486
 H    7.441713080891   -2.121803634816    0.000000000000
 C    5.880082264569   -5.066069261527    0.000000000000
 H    6.378118502552   -5.478793224896    0.892806270036
 H    6.378118502552   -5.478793224896   -0.892806270036
 C    4.392410262118   -5.393597738339    0.000000000000
 H    4.249829943621   -6.482855722141    0.000000000000
 H    3.881899987099   -5.008068861983   -0.896552662534
 H    3.881899987099   -5.008068861983    0.896552662534
