26

 C   -1.951070008390    3.928856943908    0.000000000000
 H   -1.808490008390    5.018106943908    0.000000000000
 H   -1.440560008390    3.543326943908    0.896550000000
 H   -1.440560008390    3.543326943908   -0.896550000000
 C   -3.438740008390    3.601326943908    0.000000000000
 H   -3.936780008390    4.014046943908   -0.892810000000
 H   -3.936780008390    4.014046943908    0.892810000000
 O   -3.591800008390    2.154996943908    0.000000000000
 C   -4.986830008390    1.754786943908    0.000000000000
 H   -5.495650008390    2.136356943908   -0.897750000000
 H   -5.495650008390    2.136356943908    0.897750000000
 H   -5.000380008390    0.657056943908    0.000000000000
 K   -2.019640008390    1.211736943908    1.771120000000
 K   -2.019640008390    1.211736943908   -1.771120000000
 O    6.212375239157   -3.727283704373    0.000000000000
 C    7.607404839005   -3.327078625010    0.000000000000
 H    8.116221861984   -3.708647401544    0.897747484486
 H    8.116221861984   -3.708647401544   -0.897747484486
 H    7.620950864209   -2.229342200543    0.000000000000
 C    6.059320047887   -5.173607827253    0.000000000000
 H    6.557356285870   -5.586331790623    0.892806270036
 H    6.557356285870   -5.586331790623   -0.892806270036
 C    4.571648045436   -5.501136304065    0.000000000000
 H    4.429067726939   -6.590394287867    0.000000000000
 H    4.061137770417   -5.115607427709   -0.896552662534
 H    4.061137770417   -5.115607427709    0.896552662534
