10

 C    0.964641477560   -1.136553732951    0.000000000000
 C   -0.134657522440   -0.087693732951    0.000000000000
 N   -1.414265522440   -0.591482732951    0.000000000000
 H   -2.188938522440    0.059101267049    0.000000000000
 H   -1.600936522440   -1.583533732951    0.000000000000
 O    0.086934477560    1.125308267049    0.000000000000
 H    1.935306477560   -0.627408732951    0.000000000000
 H    0.885003477560   -1.777558732951    0.892247000000
 H    0.885003477560   -1.777558732951   -0.892247000000
LI    1.217070537645    1.528783775222    0.000000000000
