10

 C    0.924628031741   -1.150839132697    0.000000000000
 C   -0.174670968259   -0.101979132697    0.000000000000
 N   -1.454278968259   -0.605768132697    0.000000000000
 H   -2.228951968259    0.044815867303    0.000000000000
 H   -1.640949968259   -1.597819132697    0.000000000000
 O    0.046921031741    1.111022867303    0.000000000000
 H    1.895293031741   -0.641694132697    0.000000000000
 H    0.844990031741   -1.791844132697    0.892247000000
 H    0.844990031741   -1.791844132697   -0.892247000000
LI    1.553769111854    1.648990211533    0.000000000000
