10

 C    0.914624670286   -1.154410482633    0.000000000000
 C   -0.184674329714   -0.105550482633    0.000000000000
 N   -1.464282329714   -0.609339482633    0.000000000000
 H   -2.238955329714    0.041244517367    0.000000000000
 H   -1.650953329714   -1.601390482633    0.000000000000
 O    0.036917670286    1.107451517367    0.000000000000
 H    1.885289670286   -0.645265482633    0.000000000000
 H    0.834986670286   -1.795415482633    0.892247000000
 H    0.834986670286   -1.795415482633   -0.892247000000
LI    1.637943755406    1.679041820611    0.000000000000
