10

 C    0.894617947376   -1.161553182506    0.000000000000
 C   -0.204681052624   -0.112693182506    0.000000000000
 N   -1.484289052624   -0.616482182506    0.000000000000
 H   -2.258962052624    0.034101817494    0.000000000000
 H   -1.670960052624   -1.608533182506    0.000000000000
 O    0.016910947376    1.100308817494    0.000000000000
 H    1.865282947376   -0.652408182506    0.000000000000
 H    0.814979947376   -1.802558182506    0.892247000000
 H    0.814979947376   -1.802558182506   -0.892247000000
LI    1.806293042511    1.739145038767    0.000000000000
