10

 C    0.874611224467   -1.168695882379    0.000000000000
 C   -0.224687775533   -0.119835882379    0.000000000000
 N   -1.504295775533   -0.623624882379    0.000000000000
 H   -2.278968775533    0.026959117621    0.000000000000
 H   -1.690966775533   -1.615675882379    0.000000000000
 O   -0.003095775533    1.093166117621    0.000000000000
 H    1.845276224467   -0.659550882379    0.000000000000
 H    0.794973224467   -1.809700882379    0.892247000000
 H    0.794973224467   -1.809700882379   -0.892247000000
LI    1.974642329616    1.799248256923    0.000000000000
