10

 C    0.864607863012   -1.172267232316    0.000000000000
 C   -0.234691136988   -0.123407232316    0.000000000000
 N   -1.514299136988   -0.627196232316    0.000000000000
 H   -2.288972136988    0.023387767684    0.000000000000
 H   -1.700970136988   -1.619247232316    0.000000000000
 O   -0.013099136988    1.089594767684    0.000000000000
 H    1.835272863012   -0.663122232316    0.000000000000
 H    0.784969863012   -1.813272232316    0.892247000000
 H    0.784969863012   -1.813272232316   -0.892247000000
LI    2.058816973168    1.829299866001    0.000000000000
