10

 C    0.834597778648   -1.182981282125    0.000000000000
 C   -0.264701221352   -0.134121282125    0.000000000000
 N   -1.544309221352   -0.637910282125    0.000000000000
 H   -2.318982221352    0.012673717875    0.000000000000
 H   -1.730980221352   -1.629961282125    0.000000000000
 O   -0.043109221352    1.078880717875    0.000000000000
 H    1.805262778648   -0.673836282125    0.000000000000
 H    0.754959778648   -1.823986282125    0.892247000000
 H    0.754959778648   -1.823986282125   -0.892247000000
LI    2.311340903825    1.919454693235    0.000000000000
