10

 C    0.814591055738   -1.190123981998    0.000000000000
 C   -0.284707944262   -0.141263981998    0.000000000000
 N   -1.564315944262   -0.645052981998    0.000000000000
 H   -2.338988944262    0.005531018002    0.000000000000
 H   -1.750986944262   -1.637103981998    0.000000000000
 O   -0.063115944262    1.071738018002    0.000000000000
 H    1.785256055738   -0.680978981998    0.000000000000
 H    0.734953055738   -1.831128981998    0.892247000000
 H    0.734953055738   -1.831128981998   -0.892247000000
LI    2.479690190930    1.979557911391    0.000000000000
