10

 C    0.804587694284   -1.193695331935    0.000000000000
 C   -0.294711305716   -0.144835331935    0.000000000000
 N   -1.574319305716   -0.648624331935    0.000000000000
 H   -2.348992305716    0.001959668065    0.000000000000
 H   -1.760990305716   -1.640675331935    0.000000000000
 O   -0.073119305716    1.068166668065    0.000000000000
 H    1.775252694284   -0.684550331935    0.000000000000
 H    0.724949694284   -1.834700331935    0.892247000000
 H    0.724949694284   -1.834700331935   -0.892247000000
LI    2.563864834482    2.009609520468    0.000000000000
