10

 C    0.784580971374   -1.200838031807    0.000000000000
 C   -0.314718028626   -0.151978031807    0.000000000000
 N   -1.594326028626   -0.655767031807    0.000000000000
 H   -2.368999028626   -0.005183031807    0.000000000000
 H   -1.780997028626   -1.647818031807    0.000000000000
 O   -0.093126028626    1.061023968193    0.000000000000
 H    1.755245971374   -0.691693031807    0.000000000000
 H    0.704942971374   -1.841843031807    0.892247000000
 H    0.704942971374   -1.841843031807   -0.892247000000
LI    2.732214121587    2.069712738624    0.000000000000
