10

 C    0.774577609919   -1.204409381744    0.000000000000
 C   -0.324721390081   -0.155549381744    0.000000000000
 N   -1.604329390081   -0.659338381744    0.000000000000
 H   -2.379002390081   -0.008754381744    0.000000000000
 H   -1.791000390081   -1.651389381744    0.000000000000
 O   -0.103129390081    1.057452618256    0.000000000000
 H    1.745242609919   -0.695264381744    0.000000000000
 H    0.694939609919   -1.845414381744    0.892247000000
 H    0.694939609919   -1.845414381744   -0.892247000000
LI    2.816388765139    2.099764347702    0.000000000000
