10

 C    0.754570887010   -1.211552081617    0.000000000000
 C   -0.344728112990   -0.162692081617    0.000000000000
 N   -1.624336112990   -0.666481081617    0.000000000000
 H   -2.399009112990   -0.015897081617    0.000000000000
 H   -1.811007112990   -1.658532081617    0.000000000000
 O   -0.123136112990    1.050309918383    0.000000000000
 H    1.725235887010   -0.702407081617    0.000000000000
 H    0.674932887010   -1.852557081617    0.892247000000
 H    0.674932887010   -1.852557081617   -0.892247000000
LI    2.984738052244    2.159867565858    0.000000000000
