10

 C    0.674543995372   -1.240122881109    0.000000000000
 C   -0.424755004628   -0.191262881109    0.000000000000
 N   -1.704363004628   -0.695051881109    0.000000000000
 H   -2.479036004628   -0.044467881109    0.000000000000
 H   -1.891034004628   -1.687102881109    0.000000000000
 O   -0.203163004628    1.021739118891    0.000000000000
 H    1.645208995372   -0.730977881109    0.000000000000
 H    0.594905995372   -1.881127881109    0.892247000000
 H    0.594905995372   -1.881127881109   -0.892247000000
LI    3.658135200663    2.400280438481    0.000000000000
