10

 C    0.664540633917   -1.243694231045    0.000000000000
 C   -0.434758366083   -0.194834231045    0.000000000000
 N   -1.714366366083   -0.698623231045    0.000000000000
 H   -2.489039366083   -0.048039231045    0.000000000000
 H   -1.901037366083   -1.690674231045    0.000000000000
 O   -0.213166366083    1.018167768955    0.000000000000
 H    1.635205633917   -0.734549231045    0.000000000000
 H    0.584902633917   -1.884699231045    0.892247000000
 H    0.584902633917   -1.884699231045   -0.892247000000
LI    3.742309844215    2.430332047559    0.000000000000
