10

 C    0.594517103734   -1.268693680600    0.000000000000
 C   -0.504781896266   -0.219833680600    0.000000000000
 N   -1.784389896266   -0.723622680600    0.000000000000
 H   -2.559062896266   -0.073038680600    0.000000000000
 H   -1.971060896266   -1.715673680600    0.000000000000
 O   -0.283189896266    0.993168319400    0.000000000000
 H    1.565182103734   -0.759548680600    0.000000000000
 H    0.514879103734   -1.909698680600    0.892247000000
 H    0.514879103734   -1.909698680600   -0.892247000000
LI    4.331532349082    2.640693311105    0.000000000000
