10

 C    0.564507019370   -1.279407730410    0.000000000000
 C   -0.534791980630   -0.230547730410    0.000000000000
 N   -1.814399980630   -0.734336730410    0.000000000000
 H   -2.589072980630   -0.083752730410    0.000000000000
 H   -2.001070980630   -1.726387730410    0.000000000000
 O   -0.313199980630    0.982454269590    0.000000000000
 H    1.535172019370   -0.770262730410    0.000000000000
 H    0.484869019370   -1.920412730410    0.892247000000
 H    0.484869019370   -1.920412730410   -0.892247000000
LI    4.584056279739    2.730848138339    0.000000000000
