10

 C    0.544500296460   -1.286550430283    0.000000000000
 C   -0.554798703540   -0.237690430283    0.000000000000
 N   -1.834406703540   -0.741479430283    0.000000000000
 H   -2.609079703540   -0.090895430283    0.000000000000
 H   -2.021077703540   -1.733530430283    0.000000000000
 O   -0.333206703540    0.975311569717    0.000000000000
 H    1.515165296460   -0.777405430283    0.000000000000
 H    0.464862296460   -1.927555430283    0.892247000000
 H    0.464862296460   -1.927555430283   -0.892247000000
LI    4.752405566843    2.790951356494    0.000000000000
