10

 C    0.524493573551   -1.293693130156    0.000000000000
 C   -0.574805426449   -0.244833130156    0.000000000000
 N   -1.854413426449   -0.748622130156    0.000000000000
 H   -2.629086426449   -0.098038130156    0.000000000000
 H   -2.041084426449   -1.740673130156    0.000000000000
 O   -0.353213426449    0.968168869844    0.000000000000
 H    1.495158573551   -0.784548130156    0.000000000000
 H    0.444855573551   -1.934698130156    0.892247000000
 H    0.444855573551   -1.934698130156   -0.892247000000
LI    4.920754853948    2.851054574650    0.000000000000
