10

 C    0.494483489186   -1.304407179965    0.000000000000
 C   -0.604815510814   -0.255547179965    0.000000000000
 N   -1.884423510814   -0.759336179965    0.000000000000
 H   -2.659096510814   -0.108752179965    0.000000000000
 H   -2.071094510814   -1.751387179965    0.000000000000
 O   -0.383223510814    0.957454820035    0.000000000000
 H    1.465148489186   -0.795262179965    0.000000000000
 H    0.414845489186   -1.945412179965    0.892247000000
 H    0.414845489186   -1.945412179965   -0.892247000000
LI    5.173278784605    2.941209401884    0.000000000000
