10

 C    0.474476766277   -1.311549879838    0.000000000000
 C   -0.624822233723   -0.262689879838    0.000000000000
 N   -1.904430233723   -0.766478879838    0.000000000000
 H   -2.679103233723   -0.115894879838    0.000000000000
 H   -2.091101233723   -1.758529879838    0.000000000000
 O   -0.403230233723    0.950312120162    0.000000000000
 H    1.445141766277   -0.802404879838    0.000000000000
 H    0.394838766277   -1.952554879838    0.892247000000
 H    0.394838766277   -1.952554879838   -0.892247000000
LI    5.341628071710    3.001312620040    0.000000000000
