10

 C    0.454470043367   -1.318692579711    0.000000000000
 C   -0.644828956633   -0.269832579711    0.000000000000
 N   -1.924436956633   -0.773621579711    0.000000000000
 H   -2.699109956633   -0.123037579711    0.000000000000
 H   -2.111107956633   -1.765672579711    0.000000000000
 O   -0.423236956633    0.943169420289    0.000000000000
 H    1.425135043367   -0.809547579711    0.000000000000
 H    0.374832043367   -1.959697579711    0.892247000000
 H    0.374832043367   -1.959697579711   -0.892247000000
LI    5.509977358814    3.061415838196    0.000000000000
