10

 C    0.394449874639   -1.340120679330    0.000000000000
 C   -0.704849125361   -0.291260679330    0.000000000000
 N   -1.984457125361   -0.795049679330    0.000000000000
 H   -2.759130125361   -0.144465679330    0.000000000000
 H   -2.171128125361   -1.787100679330    0.000000000000
 O   -0.483257125361    0.921741320670    0.000000000000
 H    1.365114874639   -0.830975679330    0.000000000000
 H    0.314811874639   -1.981125679330    0.892247000000
 H    0.314811874639   -1.981125679330   -0.892247000000
LI    6.015025220129    3.241725492663    0.000000000000
