10

 C    0.374443151729   -1.347263379203    0.000000000000
 C   -0.724855848271   -0.298403379203    0.000000000000
 N   -2.004463848271   -0.802192379203    0.000000000000
 H   -2.779136848271   -0.151608379203    0.000000000000
 H   -2.191134848271   -1.794243379203    0.000000000000
 O   -0.503263848271    0.914598620797    0.000000000000
 H    1.345108151729   -0.838118379203    0.000000000000
 H    0.294805151729   -1.988268379203    0.892247000000
 H    0.294805151729   -1.988268379203   -0.892247000000
LI    6.183374507233    3.301828710819    0.000000000000
