10

 C    0.364439790275   -1.350834729139    0.000000000000
 C   -0.734859209725   -0.301974729139    0.000000000000
 N   -2.014467209725   -0.805763729139    0.000000000000
 H   -2.789140209725   -0.155179729139    0.000000000000
 H   -2.201138209725   -1.797814729139    0.000000000000
 O   -0.513267209725    0.911027270861    0.000000000000
 H    1.335104790275   -0.841689729139    0.000000000000
 H    0.284801790275   -1.991839729139    0.892247000000
 H    0.284801790275   -1.991839729139   -0.892247000000
LI    6.267549150786    3.331880319897    0.000000000000
