10

 C    0.354436428820   -1.354406079076    0.000000000000
 C   -0.744862571180   -0.305546079076    0.000000000000
 N   -2.024470571180   -0.809335079076    0.000000000000
 H   -2.799143571180   -0.158751079076    0.000000000000
 H   -2.211141571180   -1.801386079076    0.000000000000
 O   -0.523270571180    0.907455920924    0.000000000000
 H    1.325101428820   -0.845261079076    0.000000000000
 H    0.274798428820   -1.995411079076    0.892247000000
 H    0.274798428820   -1.995411079076   -0.892247000000
LI    6.351723794338    3.361931928975    0.000000000000
