10

 C    0.264406175727   -1.386548228504    0.000000000000
 C   -0.834892824273   -0.337688228504    0.000000000000
 N   -2.114500824273   -0.841477228504    0.000000000000
 H   -2.889173824273   -0.190893228504    0.000000000000
 H   -2.301171824273   -1.833528228504    0.000000000000
 O   -0.613300824273    0.875313771496    0.000000000000
 H    1.235071175727   -0.877403228504    0.000000000000
 H    0.184768175727   -2.027553228504    0.892247000000
 H    0.184768175727   -2.027553228504   -0.892247000000
LI    7.109295586309    3.632396410676    0.000000000000
