10

 C    0.224392729908   -1.400833628250    0.000000000000
 C   -0.874906270092   -0.351973628250    0.000000000000
 N   -2.154514270092   -0.855762628250    0.000000000000
 H   -2.929187270092   -0.205178628250    0.000000000000
 H   -2.341185270092   -1.847813628250    0.000000000000
 O   -0.653314270092    0.861028371750    0.000000000000
 H    1.195057729908   -0.891688628250    0.000000000000
 H    0.144754729908   -2.041838628250    0.892247000000
 H    0.144754729908   -2.041838628250   -0.892247000000
LI    7.445994160519    3.752602846988    0.000000000000
