10

 C    0.214389368454   -1.404404978186    0.000000000000
 C   -0.884909631546   -0.355544978186    0.000000000000
 N   -2.164517631546   -0.859333978186    0.000000000000
 H   -2.939190631546   -0.208749978186    0.000000000000
 H   -2.351188631546   -1.851384978186    0.000000000000
 O   -0.663317631546    0.857457021814    0.000000000000
 H    1.185054368454   -0.895259978186    0.000000000000
 H    0.134751368454   -2.045409978186    0.892247000000
 H    0.134751368454   -2.045409978186   -0.892247000000
LI    7.530168804071    3.782654456066    0.000000000000
