10

 C    0.204386006999   -1.407976328123    0.000000000000
 C   -0.894912993001   -0.359116328123    0.000000000000
 N   -2.174520993001   -0.862905328123    0.000000000000
 H   -2.949193993001   -0.212321328123    0.000000000000
 H   -2.361191993001   -1.854956328123    0.000000000000
 O   -0.673320993001    0.853885671877    0.000000000000
 H    1.175051006999   -0.898831328123    0.000000000000
 H    0.124748006999   -2.048981328123    0.892247000000
 H    0.124748006999   -2.048981328123   -0.892247000000
LI    7.614343447623    3.812706065144    0.000000000000
