10

 C    0.184379284089   -1.415119027996    0.000000000000
 C   -0.914919715911   -0.366259027996    0.000000000000
 N   -2.194527715911   -0.870048027996    0.000000000000
 H   -2.969200715911   -0.219464027996    0.000000000000
 H   -2.381198715911   -1.862099027996    0.000000000000
 O   -0.693327715911    0.846742972004    0.000000000000
 H    1.155044284089   -0.905974027996    0.000000000000
 H    0.104741284089   -2.056124027996    0.892247000000
 H    0.104741284089   -2.056124027996   -0.892247000000
LI    7.782692734728    3.872809283300    0.000000000000
