10

 C    0.154369199725   -1.425833077805    0.000000000000
 C   -0.944929800275   -0.376973077805    0.000000000000
 N   -2.224537800275   -0.880762077805    0.000000000000
 H   -2.999210800275   -0.230178077805    0.000000000000
 H   -2.411208800275   -1.872813077805    0.000000000000
 O   -0.723337800275    0.836028922195    0.000000000000
 H    1.125034199725   -0.916688077805    0.000000000000
 H    0.074731199725   -2.066838077805    0.892247000000
 H    0.074731199725   -2.066838077805   -0.892247000000
LI    8.035216665385    3.962964110533    0.000000000000
