10

 C    0.124359115361   -1.436547127615    0.000000000000
 C   -0.974939884639   -0.387687127615    0.000000000000
 N   -2.254547884639   -0.891476127615    0.000000000000
 H   -3.029220884639   -0.240892127615    0.000000000000
 H   -2.441218884639   -1.883527127615    0.000000000000
 O   -0.753347884639    0.825314872385    0.000000000000
 H    1.095024115361   -0.927402127615    0.000000000000
 H    0.044721115361   -2.077552127615    0.892247000000
 H    0.044721115361   -2.077552127615   -0.892247000000
LI    8.287740596042    4.053118937767    0.000000000000
