10

 C    0.114355753906   -1.440118477551    0.000000000000
 C   -0.984943246094   -0.391258477551    0.000000000000
 N   -2.264551246094   -0.895047477551    0.000000000000
 H   -3.039224246094   -0.244463477551    0.000000000000
 H   -2.451222246094   -1.887098477551    0.000000000000
 O   -0.763351246094    0.821743522449    0.000000000000
 H    1.085020753906   -0.930973477551    0.000000000000
 H    0.034717753906   -2.081123477551    0.892247000000
 H    0.034717753906   -2.081123477551   -0.892247000000
LI    8.371915239594    4.083170546845    0.000000000000
