10

 C    0.104352392451   -1.443689827487    0.000000000000
 C   -0.994946607549   -0.394829827487    0.000000000000
 N   -2.274554607549   -0.898618827487    0.000000000000
 H   -3.049227607549   -0.248034827487    0.000000000000
 H   -2.461225607549   -1.890669827488    0.000000000000
 O   -0.773354607549    0.818172172513    0.000000000000
 H    1.075017392451   -0.934544827487    0.000000000000
 H    0.024714392451   -2.084694827487    0.892247000000
 H    0.024714392451   -2.084694827487   -0.892247000000
LI    8.456089883147    4.113222155923    0.000000000000
