16

 N    0.702686974744    2.036610294042    0.044021422411
 C    2.073302387153    2.236084971883    0.040389788035
 H    2.395086683491    3.279829902759    0.061808603728
 C    0.102971705315    0.783495134489    0.019491431755
 O   -1.114802326217    0.616552428422    0.020487512529
 N    1.028277720926   -0.253282475353   -0.008165105234
 H    0.633704013063   -1.191796785202   -0.028673978632
 C    2.434008099321   -0.167243763035   -0.016613156025
 O    3.122328771749   -1.190860984837   -0.044721094578
 C    2.963777280386    1.201145105699    0.011993213109
 C    4.456067173992    1.385003431161    0.007162403283
 H    4.717614803072    2.453431308029    0.029816571430
 H    4.896211487582    0.926683211739   -0.891945848163
 H    4.907072380701    0.886516945855    0.879099240196
 H    0.060380751415    2.820863332216    0.063916840701
CS   -1.643713082056   -0.679394253894   -0.007362244251
