16

 N    0.760857798940    2.179141497636    0.047084402862
 C    2.131473211349    2.378616175477    0.043452768486
 H    2.453257507687    3.422361106353    0.064871584179
 C    0.161142529511    0.926026338083    0.022554412206
 O   -1.056631502021    0.759083632016    0.023550492980
 N    1.086448545122   -0.110751271759   -0.005102124783
 H    0.691874837259   -1.049265581608   -0.025610998181
 C    2.492178923517   -0.024712559441   -0.013550175574
 O    3.180499595945   -1.048329781243   -0.041658114127
 C    3.021948104582    1.343676309293    0.015056193560
 C    4.514237998188    1.527534634755    0.010225383734
 H    4.775785627268    2.595962511623    0.032879551881
 H    4.954382311778    1.069214415333   -0.888882867712
 H    4.965243204897    1.029048149449    0.882162220647
 H    0.118551575611    2.963394535810    0.066979821152
CS   -1.698880276969   -0.814565910796   -0.010267068824
