16

 N    0.819028623135    2.321672701231    0.050147383313
 C    2.189644035544    2.521147379072    0.046515748937
 H    2.511428331882    3.564892309948    0.067934564630
 C    0.219313353706    1.068557541678    0.025617392657
 O   -0.998460677826    0.901614835611    0.026613473431
 N    1.144619369317    0.031779931836   -0.002039144332
 H    0.750045661454   -0.906734378013   -0.022548017730
 C    2.550349747712    0.117818644154   -0.010487195123
 O    3.238670420140   -0.905798577648   -0.038595133676
 C    3.080118928777    1.486207512888    0.018119174011
 C    4.572408822383    1.670065838350    0.013288364185
 H    4.833956451463    2.738493715218    0.035942532332
 H    5.012553135973    1.211745618928   -0.885819887261
 H    5.023414029092    1.171579353044    0.885225201098
 H    0.176722399806    3.105925739405    0.070042801603
CS   -1.754047471882   -0.949737567697   -0.013171893397
