16

 N    0.838418897867    2.369183102429    0.051168376797
 C    2.209034310276    2.568657780270    0.047536742421
 H    2.530818606614    3.612402711146    0.068955558114
 C    0.238703628438    1.116067942876    0.026638386141
 O   -0.979070403094    0.949125236809    0.027634466915
 N    1.164009644049    0.079290333034   -0.001018150848
 H    0.769435936186   -0.859223976815   -0.021527024246
 C    2.569740022444    0.165329045352   -0.009466201639
 O    3.258060694872   -0.858288176450   -0.037574140192
 C    3.099509203509    1.533717914086    0.019140167495
 C    4.591799097115    1.717576239548    0.014309357669
 H    4.853346726195    2.786004116416    0.036963525816
 H    5.031943410705    1.259256020126   -0.884798893777
 H    5.042804303824    1.219089754242    0.886246194582
 H    0.196112674538    3.153436140603    0.071063795087
CS   -1.772436536853   -0.994794786664   -0.014140168255
