16

 N    0.896589722063    2.511714306024    0.054231357248
 C    2.267205134472    2.711188983865    0.050599722872
 H    2.588989430810    3.754933914741    0.072018538565
 C    0.296874452634    1.258599146471    0.029701366592
 O   -0.920899578898    1.091656440404    0.030697447366
 N    1.222180468245    0.221821536629    0.002044829603
 H    0.827606760382   -0.716692773220   -0.018464043795
 C    2.627910846640    0.307860248947   -0.006403221188
 O    3.316231519068   -0.715756972855   -0.034511159741
 C    3.157680027705    1.676249117681    0.022203147946
 C    4.649969921311    1.860107443143    0.017372338120
 H    4.911517550391    2.928535320011    0.040026506267
 H    5.090114234901    1.401787223721   -0.881735913326
 H    5.100975128020    1.361620957837    0.889309175033
 H    0.254283498734    3.295967344198    0.074126775538
CS   -1.827603731765   -1.129966443566   -0.017044992828
