16

 N    0.993541095722    2.749266312015    0.059336324667
 C    2.364156508131    2.948740989856    0.055704690291
 H    2.685940804469    3.992485920732    0.077123505984
 C    0.393825826293    1.496151152462    0.034806334011
 O   -0.823948205239    1.329208446395    0.035802414785
 N    1.319131841904    0.459373542620    0.007149797022
 H    0.924558134041   -0.479140767229   -0.013359076376
 C    2.724862220299    0.545412254938   -0.001298253769
 O    3.413182892727   -0.478204966864   -0.029406192322
 C    3.254631401364    1.913801123672    0.027308115365
 C    4.746921294970    2.097659449134    0.022477305539
 H    5.008468924050    3.166087326002    0.045131473686
 H    5.187065608560    1.639339229712   -0.876630945907
 H    5.197926501679    1.599172963828    0.894414142452
 H    0.351234872393    3.533519350189    0.079231742957
CS   -1.919549056620   -1.355252538402   -0.021886367117
