16

 N    1.032321645186    2.844287114411    0.061378311634
 C    2.402937057595    3.043761792252    0.057746677258
 H    2.724721353933    4.087506723128    0.079165492951
 C    0.432606375757    1.591171954858    0.036848320978
 O   -0.785167655775    1.424229248791    0.037844401752
 N    1.357912391368    0.554394345016    0.009191783989
 H    0.963338683505   -0.384119964833   -0.011317089409
 C    2.763642769763    0.640433057334    0.000743733198
 O    3.451963442191   -0.383184164468   -0.027364205355
 C    3.293411950828    2.008821926068    0.029350102332
 C    4.785701844434    2.192680251530    0.024519292506
 H    5.047249473514    3.261108128398    0.047173460653
 H    5.225846158024    1.734360032108   -0.874588958940
 H    5.236707051143    1.694193766224    0.896456129419
 H    0.390015421857    3.628540152585    0.081273729924
CS   -1.956327186562   -1.445366976336   -0.023822916832
