16

 N    1.051711919918    2.891797515610    0.062399305118
 C    2.422327332327    3.091272193451    0.058767670742
 H    2.744111628665    4.135017124327    0.080186486435
 C    0.451996650489    1.638682356057    0.037869314462
 O   -0.765777381043    1.471739649990    0.038865395236
 N    1.377302666100    0.601904746215    0.010212777473
 H    0.982728958237   -0.336609563634   -0.010296095925
 C    2.783033044495    0.687943458533    0.001764726682
 O    3.471353716923   -0.335673763269   -0.026343211871
 C    3.312802225560    2.056332327267    0.030371095816
 C    4.805092119166    2.240190652729    0.025540285990
 H    5.066639748246    3.308618529597    0.048194454137
 H    5.245236432756    1.781870433307   -0.873567965456
 H    5.256097325875    1.741704167423    0.897477122903
 H    0.409405696589    3.676050553784    0.082294723408
CS   -1.974716251533   -1.490424195303   -0.024791191690
