16

 N    1.129273018845    3.081839120403    0.066483279053
 C    2.499888431254    3.281313798244    0.062851644677
 H    2.821672727592    4.325058729120    0.084270460370
 C    0.529557749416    1.828723960850    0.041953288397
 O   -0.688216282116    1.661781254783    0.042949369171
 N    1.454863765027    0.791946351008    0.014296751408
 H    1.060290057164   -0.146567958841   -0.006212121990
 C    2.860594143422    0.877985063326    0.005848700617
 O    3.548914815850   -0.145632158476   -0.022259237936
 C    3.390363324487    2.246373932060    0.034455069751
 C    4.882653218093    2.430232257522    0.029624259925
 H    5.144200847173    3.498660134390    0.052278428072
 H    5.322797531683    1.971912038100   -0.869483991521
 H    5.333658424802    1.931745772216    0.901561096838
 H    0.486966795516    3.866092158577    0.086378697343
CS   -2.048272511416   -1.670653071172   -0.028664291121
