16

 N    1.168053568309    3.176859922799    0.068525266020
 C    2.538668980718    3.376334600640    0.064893631644
 H    2.860453277056    4.420079531516    0.086312447337
 C    0.568338298880    1.923744763246    0.043995275364
 O   -0.649435732652    1.756802057179    0.044991356138
 N    1.493644314491    0.886967153404    0.016338738375
 H    1.099070606628   -0.051547156445   -0.004170135023
 C    2.899374692886    0.973005865722    0.007890687584
 O    3.587695365314   -0.050611356080   -0.020217250969
 C    3.429143873951    2.341394734456    0.036497056718
 C    4.921433767557    2.525253059918    0.031666246892
 H    5.182981396637    3.593680936786    0.054320415039
 H    5.361578081147    2.066932840496   -0.867442004554
 H    5.372438974266    2.026766574612    0.903603083805
 H    0.525747344980    3.961112960973    0.088420684310
CS   -2.085050641358   -1.760767509106   -0.030600840836
