16

 N    1.187443843041    3.224370323997    0.069546259504
 C    2.558059255450    3.423845001838    0.065914625128
 H    2.879843551788    4.467589932714    0.087333440821
 C    0.587728573612    1.971255164444    0.045016268848
 O   -0.630045457920    1.804312458377    0.046012349622
 N    1.513034589223    0.934477554602    0.017359731859
 H    1.118460881360   -0.004036755247   -0.003149141539
 C    2.918764967618    1.020516266920    0.008911681068
 O    3.607085640046   -0.003100954882   -0.019196257485
 C    3.448534148683    2.388905135654    0.037518050202
 C    4.940824042289    2.572763461116    0.032687240376
 H    5.202371671369    3.641191337984    0.055341408523
 H    5.380968355879    2.114443241694   -0.866421011070
 H    5.391829248998    2.074276975810    0.904624077289
 H    0.545137619712    4.008623362171    0.089441677794
CS   -2.103439706329   -1.805824728074   -0.031569115694
