16

 N    1.245614667237    3.366901527592    0.072609239955
 C    2.616230079646    3.566376205433    0.068977605579
 H    2.938014375984    4.610121136309    0.090396421272
 C    0.645899397808    2.113786368039    0.048079249299
 O   -0.571874633724    1.946843661972    0.049075330073
 N    1.571205413419    1.077008758197    0.020422712310
 H    1.176631705556    0.138494448348   -0.000086161088
 C    2.976935791814    1.163047470515    0.011974661519
 O    3.665256464242    0.139430248713   -0.016133277034
 C    3.506704972879    2.531436339249    0.040581030653
 C    4.998994866485    2.715294664711    0.035750220827
 H    5.260542495565    3.783722541579    0.058404388974
 H    5.439139180075    2.256974445289   -0.863358030619
 H    5.450000073194    2.216808179405    0.907687057740
 H    0.603308443908    4.151154565766    0.092504658245
CS   -2.158606901242   -1.940996384975   -0.034473940267
