16

 N    1.265004941968    3.414411928790    0.073630233439
 C    2.635620354377    3.613886606631    0.069998599063
 H    2.957404650715    4.657631537507    0.091417414756
 C    0.665289672539    2.161296769237    0.049100242783
 O   -0.552484358993    1.994354063170    0.050096323557
 N    1.590595688150    1.124519159395    0.021443705794
 H    1.196021980287    0.186004849546    0.000934832396
 C    2.996326066545    1.210557871713    0.012995655003
 O    3.684646738973    0.186940649911   -0.015112283550
 C    3.526095247610    2.578946740447    0.041602024137
 C    5.018385141216    2.762805065909    0.036771214311
 H    5.279932770296    3.831232942777    0.059425382458
 H    5.458529454806    2.304484846487   -0.862337037135
 H    5.469390347925    2.264318580603    0.908708051224
 H    0.622698718639    4.198664966964    0.093525651729
CS   -2.176995966213   -1.986053603942   -0.035442215125
