16

 N    1.458907689287    3.889515940772    0.083840168276
 C    2.829523101696    4.088990618613    0.080208533900
 H    3.151307398034    5.132735549489    0.101627349593
 C    0.859192419858    2.636400781219    0.059310177620
 O   -0.358581611674    2.469458075152    0.060306258394
 N    1.784498435469    1.599623171377    0.031653640631
 H    1.389924727606    0.661108861528    0.011144767233
 C    3.190228813864    1.685661883695    0.023205589840
 O    3.878549486292    0.662044661893   -0.004902348713
 C    3.719997994929    3.054050752429    0.051811958974
 C    5.212287888535    3.237909077891    0.046981149148
 H    5.473835517615    4.306336954759    0.069635317295
 H    5.652432202125    2.779588858469   -0.852127102298
 H    5.663293095244    2.739422592585    0.918917986061
 H    0.816601465958    4.673768978946    0.103735586566
CS   -2.360886615922   -2.436625793614   -0.045124963702
