16

 N    1.555859062947    4.127067946764    0.088945135694
 C    2.926474475356    4.326542624605    0.085313501318
 H    3.248258771694    5.370287555481    0.106732317011
 C    0.956143793518    2.873952787211    0.064415145038
 O   -0.261630238014    2.707010081144    0.065411225812
 N    1.881449809129    1.837175177369    0.036758608049
 H    1.486876101266    0.898660867520    0.016249734651
 C    3.287180187524    1.923213889687    0.028310557258
 O    3.975500859952    0.899596667885    0.000202618705
 C    3.816949368589    3.291602758421    0.056916926392
 C    5.309239262195    3.475461083883    0.052086116566
 H    5.570786891275    4.543888960751    0.074740284713
 H    5.749383575785    3.017140864461   -0.847022134880
 H    5.760244468904    2.976974598577    0.924022953479
 H    0.913552839618    4.911320984938    0.108840553984
CS   -2.452831940776   -2.661911888450   -0.049966337990
