16

 N    1.614029887142    4.269599150358    0.092008116145
 C    2.984645299551    4.469073828199    0.088376481769
 H    3.306429595889    5.512818759075    0.109795297462
 C    1.014314617713    3.016483990805    0.067478125489
 O   -0.203459413819    2.849541284738    0.068474206263
 N    1.939620633324    1.979706380963    0.039821588500
 H    1.545046925461    1.041192071114    0.019312715102
 C    3.345351011719    2.065745093281    0.031373537709
 O    4.033671684147    1.042127871479    0.003265599156
 C    3.875120192784    3.434133962015    0.059979906843
 C    5.367410086390    3.617992287477    0.055149097017
 H    5.628957715470    4.686420164345    0.077803265164
 H    5.807554399980    3.159672068055   -0.843959154429
 H    5.818415293099    3.119505802171    0.927085933930
 H    0.971723663813    5.053852188532    0.111903534435
CS   -2.507999135689   -2.797083545351   -0.052871162563
