16

 N    1.710981260802    4.507151156349    0.097113083564
 C    3.081596673211    4.706625834190    0.093481449188
 H    3.403380969549    5.750370765066    0.114900264881
 C    1.111265991373    3.254035996796    0.072583092908
 O   -0.106508040159    3.087093290729    0.073579173682
 N    2.036572006984    2.217258386954    0.044926555919
 H    1.641998299121    1.278744077105    0.024417682521
 C    3.442302385379    2.303297099272    0.036478505128
 O    4.130623057807    1.279679877470    0.008370566575
 C    3.972071566444    3.671685968006    0.065084874262
 C    5.464361460050    3.855544293468    0.060254064436
 H    5.725909089130    4.923972170336    0.082908232583
 H    5.904505773640    3.397224074046   -0.838854187010
 H    5.915366666759    3.357057808162    0.932190901349
 H    1.068675037473    5.291404194523    0.117008501854
CS   -2.599944460544   -3.022369640187   -0.057712536852
