16

 N    1.769152084997    4.649682359944    0.100176064015
 C    3.139767497406    4.849157037785    0.096544429639
 H    3.461551793744    5.892901968661    0.117963245332
 C    1.169436815568    3.396567200391    0.075646073359
 O   -0.048337215964    3.229624494324    0.076642154133
 N    2.094742831179    2.359789590549    0.047989536370
 H    1.700169123316    1.421275280700    0.027480662972
 C    3.500473209574    2.445828302867    0.039541485579
 O    4.188793882002    1.422211081065    0.011433547026
 C    4.030242390639    3.814217171601    0.068147854713
 C    5.522532284245    3.998075497063    0.063317044887
 H    5.784079913325    5.066503373931    0.085971213034
 H    5.962676597835    3.539755277641   -0.835791206559
 H    5.973537490954    3.499589011757    0.935253881800
 H    1.126845861668    5.433935398118    0.120071482305
CS   -2.655111655456   -3.157541297089   -0.060617361425
