16

 N    1.807932634461    4.744703162340    0.102218050982
 C    3.178548046870    4.944177840181    0.098586416606
 H    3.500332343208    5.987922771057    0.120005232299
 C    1.208217365032    3.491588002787    0.077688060326
 O   -0.009556666500    3.324645296720    0.078684141100
 N    2.133523380643    2.454810392945    0.050031523337
 H    1.738949672780    1.516296083096    0.029522649939
 C    3.539253759038    2.540849105263    0.041583472546
 O    4.227574431466    1.517231883461    0.013475533993
 C    4.069022940103    3.909237973997    0.070189841680
 C    5.561312833709    4.093096299459    0.065359031854
 H    5.822860462789    5.161524176327    0.088013200001
 H    6.001457147299    3.634776080037   -0.833749219592
 H    6.012318040418    3.594609814153    0.937295868767
 H    1.165626411132    5.528956200514    0.122113469272
CS   -2.691889785398   -3.247655735023   -0.062553911140
