16

 N    1.827322909193    4.792213563539    0.103239044466
 C    3.197938321602    4.991688241380    0.099607410090
 H    3.519722617940    6.035433172256    0.121026225783
 C    1.227607639764    3.539098403986    0.078709053810
 O    0.009833608232    3.372155697919    0.079705134584
 N    2.152913655375    2.502320794144    0.051052516821
 H    1.758339947512    1.563806484295    0.030543643423
 C    3.558644033770    2.588359506462    0.042604466030
 O    4.246964706198    1.564742284660    0.014496527477
 C    4.088413214835    3.956748375196    0.071210835164
 C    5.580703108441    4.140606700658    0.066380025338
 H    5.842250737521    5.209034577526    0.089034193485
 H    6.020847422031    3.682286481236   -0.832728226108
 H    6.031708315150    3.642120215352    0.938316862251
 H    1.185016685864    5.576466601713    0.123134462756
CS   -2.710278850369   -3.292712953990   -0.063522185998
