16

 N    1.885493733389    4.934744767133    0.106302024917
 C    3.256109145798    5.134219444974    0.102670390541
 H    3.577893442136    6.177964375850    0.124089206234
 C    1.285778463960    3.681629607580    0.081772034261
 O    0.068004432428    3.514686901513    0.082768115035
 N    2.211084479571    2.644851997738    0.054115497272
 H    1.816510771708    1.706337687889    0.033606623874
 C    3.616814857966    2.730890710056    0.045667446481
 O    4.305135530394    1.707273488254    0.017559507928
 C    4.146584039031    4.099279578790    0.074273815615
 C    5.638873932637    4.283137904252    0.069443005789
 H    5.900421561717    5.351565781120    0.092097173936
 H    6.079018246227    3.824817684830   -0.829665245657
 H    6.089879139346    3.784651418946    0.941379842702
 H    1.243187510060    5.718997805307    0.126197443207
CS   -2.765446045282   -3.427884610892   -0.066427010571
