16

 N    1.982445107048    5.172296773124    0.111406992336
 C    3.353060519457    5.371771450965    0.107775357960
 H    3.674844815795    6.415516381841    0.129194173653
 C    1.382729837619    3.919181613571    0.086877001680
 O    0.164955806087    3.752238907504    0.087873082454
 N    2.308035853230    2.882404003729    0.059220464691
 H    1.913462145367    1.943889693880    0.038711591293
 C    3.713766231625    2.968442716047    0.050772413900
 O    4.402086904053    1.944825494245    0.022664475347
 C    4.243535412690    4.336831584781    0.079378783034
 C    5.735825306296    4.520689910243    0.074547973208
 H    5.997372935376    5.589117787111    0.097202141355
 H    6.175969619886    4.062369690821   -0.824560278238
 H    6.186830513005    4.022203424937    0.946484810121
 H    1.340138883719    5.956549811298    0.131302410626
CS   -2.857391370137   -3.653170705728   -0.071268384860
