16

 N    2.060006205976    5.362338377917    0.115490966271
 C    3.430621618385    5.561813055758    0.111859331895
 H    3.752405914723    6.605557986634    0.133278147588
 C    1.460290936547    4.109223218364    0.090960975615
 O    0.242516905015    3.942280512297    0.091957056389
 N    2.385596952158    3.072445608522    0.063304438626
 H    1.991023244295    2.133931298673    0.042795565228
 C    3.791327330553    3.158484320840    0.054856387835
 O    4.479648002981    2.134867099038    0.026748449282
 C    4.321096511618    4.526873189574    0.083462756969
 C    5.813386405224    4.710731515036    0.078631947143
 H    6.074934034304    5.779159391904    0.101286115290
 H    6.253530718814    4.252411295614   -0.820476304303
 H    6.264391611933    4.212245029730    0.950568784056
 H    1.417699982647    6.146591416091    0.135386384561
CS   -2.930947630020   -3.833399581597   -0.075141484290
