16

 N    2.137567304903    5.552379982710    0.119574940206
 C    3.508182717312    5.751854660551    0.115943305830
 H    3.829967013650    6.795599591427    0.137362121523
 C    1.537852035474    4.299264823157    0.095044949550
 O    0.320078003942    4.132322117090    0.096041030324
 N    2.463158051085    3.262487213315    0.067388412561
 H    2.068584343222    2.323972903466    0.046879539163
 C    3.868888429480    3.348525925633    0.058940361770
 O    4.557209101908    2.324908703831    0.030832423217
 C    4.398657610545    4.716914794367    0.087546730904
 C    5.890947504151    4.900773119829    0.082715921078
 H    6.152495133231    5.969200996697    0.105370089225
 H    6.331091817741    4.442452900407   -0.816392330368
 H    6.341952710860    4.402286634523    0.954652757991
 H    1.495261081574    6.336633020884    0.139470358496
CS   -3.004503889904   -4.013628457465   -0.079014583721
