16

 N    2.176347854367    5.647400785107    0.121616927173
 C    3.546963266776    5.846875462948    0.117985292797
 H    3.868747563114    6.890620393824    0.139404108490
 C    1.576632584938    4.394285625554    0.097086936517
 O    0.358858553406    4.227342919487    0.098083017291
 N    2.501938600549    3.357508015712    0.069430399528
 H    2.107364892686    2.418993705863    0.048921526130
 C    3.907668978944    3.443546728030    0.060982348737
 O    4.595989651372    2.419929506228    0.032874410184
 C    4.437438160009    4.811935596764    0.089588717871
 C    5.929728053615    4.995793922226    0.084757908045
 H    6.191275682695    6.064221799094    0.107412076192
 H    6.369872367205    4.537473702804   -0.814350343401
 H    6.380733260324    4.497307436920    0.956694744958
 H    1.534041631038    6.431653823281    0.141512345463
CS   -3.041282019846   -4.103742895400   -0.080951133437
