16

 N    2.215128403831    5.742421587503    0.123658914140
 C    3.585743816240    5.941896265344    0.120027279764
 H    3.907528112578    6.985641196220    0.141446095457
 C    1.615413134402    4.489306427950    0.099128923484
 O    0.397639102870    4.322363721883    0.100125004258
 N    2.540719150013    3.452528818108    0.071472386495
 H    2.146145442150    2.514014508259    0.050963513097
 C    3.946449528408    3.538567530426    0.063024335704
 O    4.634770200836    2.514950308624    0.034916397151
 C    4.476218709473    4.906956399160    0.091630704838
 C    5.968508603079    5.090814724622    0.086799895012
 H    6.230056232159    6.159242601490    0.109454063159
 H    6.408652916669    4.632494505200   -0.812308356434
 H    6.419513809788    4.592328239316    0.958736731925
 H    1.572822180502    6.526674625677    0.143554332430
CS   -3.078060149787   -4.193857333334   -0.082887683152
