16

 N    2.253908953295    5.837442389900    0.125700901108
 C    3.624524365704    6.036917067741    0.122069266732
 H    3.946308662042    7.080661998617    0.143488082425
 C    1.654193683866    4.584327230347    0.101170910452
 O    0.436419652334    4.417384524280    0.102166991226
 N    2.579499699477    3.547549620505    0.073514373463
 H    2.184925991614    2.609035310656    0.053005500065
 C    3.985230077872    3.633588332823    0.065066322672
 O    4.673550750300    2.609971111021    0.036958384119
 C    4.514999258937    5.001977201557    0.093672691806
 C    6.007289152543    5.185835527019    0.088841881980
 H    6.268836781623    6.254263403887    0.111496050127
 H    6.447433466133    4.727515307597   -0.810266369466
 H    6.458294359252    4.687349041713    0.960778718893
 H    1.611602729966    6.621695428074    0.145596319398
CS   -3.114838279729   -4.283971771268   -0.084824232868
