16

 N    2.273299228026    5.884952791098    0.126721894592
 C    3.643914640435    6.084427468939    0.123090260216
 H    3.965698936773    7.128172399815    0.144509075909
 C    1.673583958597    4.631837631545    0.102191903936
 O    0.455809927065    4.464894925478    0.103187984710
 N    2.598889974208    3.595060021703    0.074535366947
 H    2.204316266345    2.656545711854    0.054026493549
 C    4.004620352603    3.681098734021    0.066087316156
 O    4.692941025031    2.657481512219    0.037979377603
 C    4.534389533668    5.049487602755    0.094693685290
 C    6.026679427274    5.233345928217    0.089862875464
 H    6.288227056354    6.301773805085    0.112517043611
 H    6.466823740864    4.775025708795   -0.809245375982
 H    6.477684633983    4.734859442911    0.961799712377
 H    1.630993004697    6.669205829272    0.146617312882
CS   -3.133227344700   -4.329028990236   -0.085792507725
