16

 N    2.292689502758    5.932463192296    0.127742888075
 C    3.663304915167    6.131937870137    0.124111253699
 H    3.985089211505    7.175682801013    0.145530069392
 C    1.692974233329    4.679348032743    0.103212897419
 O    0.475200201797    4.512405326676    0.104208978193
 N    2.618280248940    3.642570422901    0.075556360430
 H    2.223706541077    2.704056113052    0.055047487032
 C    4.024010627335    3.728609135219    0.067108309639
 O    4.712331299763    2.704991913417    0.039000371086
 C    4.553779808400    5.096998003953    0.095714678773
 C    6.046069702006    5.280856329415    0.090883868947
 H    6.307617331086    6.349284206283    0.113538037094
 H    6.486214015596    4.822536109993   -0.808224382499
 H    6.497074908715    4.782369844109    0.962820705860
 H    1.650383279429    6.716716230470    0.147638306365
CS   -3.151616409671   -4.374086209203   -0.086760782583
