16

 N    2.331470052222    6.027483994693    0.129784875043
 C    3.702085464631    6.226958672534    0.126153240667
 H    4.023869760969    7.270703603410    0.147572056360
 C    1.731754782793    4.774368835140    0.105254884387
 O    0.513980751261    4.607426129073    0.106250965161
 N    2.657060798404    3.737591225298    0.077598347398
 H    2.262487090541    2.799076915449    0.057089474000
 C    4.062791176799    3.823629937616    0.069150296607
 O    4.751111849227    2.800012715814    0.041042358054
 C    4.592560357864    5.192018806350    0.097756665741
 C    6.084850251470    5.375877131812    0.092925855915
 H    6.346397880550    6.444305008680    0.115580024062
 H    6.524994565060    4.917556912390   -0.806182395531
 H    6.535855458179    4.877390646506    0.964862692828
 H    1.689163828893    6.811737032867    0.149680293333
CS   -3.188394539613   -4.464200647137   -0.088697332298
