10

 C    0.490072972832   -1.519078211674    0.000000000000
 C   -0.609226027168   -0.470218211674    0.000000000000
 N   -1.888834027168   -0.974007211674    0.000000000000
 H   -2.663507027168   -0.323423211674    0.000000000000
 H   -2.075505027168   -1.966058211674    0.000000000000
 O   -0.387634027168    0.742783788326    0.000000000000
 H    1.460737972832   -1.009933211674    0.000000000000
 H    0.410434972832   -2.160083211674    0.892247000000
 H    0.410434972832   -2.160083211674   -0.892247000000
NA    1.590104077981    1.448865927629    0.000000000000
