10

 C    0.463677594566   -1.528501757241    0.000000000000
 C   -0.635621405434   -0.479641757241    0.000000000000
 N   -1.915229405434   -0.983430757241    0.000000000000
 H   -2.689902405434   -0.332846757241    0.000000000000
 H   -2.101900405434   -1.975481757241    0.000000000000
 O   -0.414029405434    0.733360242759    0.000000000000
 H    1.434342594566   -1.019356757241    0.000000000000
 H    0.384039594566   -2.169506757241    0.892247000000
 H    0.384039594566   -2.169506757241   -0.892247000000
NA    1.657886704722    1.473065341076    0.000000000000
