10

 C    0.410886838033   -1.547348848375    0.000000000000
 C   -0.688412161967   -0.498488848375    0.000000000000
 N   -1.968020161967   -1.002277848375    0.000000000000
 H   -2.742693161967   -0.351693848375    0.000000000000
 H   -2.154691161967   -1.994328848375    0.000000000000
 O   -0.466820161967    0.714513151625    0.000000000000
 H    1.381551838033   -1.038203848375    0.000000000000
 H    0.331248838033   -2.188353848375    0.892247000000
 H    0.331248838033   -2.188353848375   -0.892247000000
NA    1.793451958204    1.521464167970    0.000000000000
