10

 C    0.358096081501   -1.566195939510    0.000000000000
 C   -0.741202918499   -0.517335939510    0.000000000000
 N   -2.020810918499   -1.021124939510    0.000000000000
 H   -2.795483918499   -0.370540939510    0.000000000000
 H   -2.207481918499   -2.013175939510    0.000000000000
 O   -0.519610918499    0.695666060490    0.000000000000
 H    1.328761081501   -1.057050939510    0.000000000000
 H    0.278458081501   -2.207200939510    0.892247000000
 H    0.278458081501   -2.207200939510   -0.892247000000
NA    1.929017211686    1.569862994864    0.000000000000
