10

 C    0.331700703235   -1.575619485077    0.000000000000
 C   -0.767598296765   -0.526759485077    0.000000000000
 N   -2.047206296765   -1.030548485077    0.000000000000
 H   -2.821879296765   -0.379964485077    0.000000000000
 H   -2.233877296765   -2.022599485077    0.000000000000
 O   -0.546006296765    0.686242514923    0.000000000000
 H    1.302365703235   -1.066474485077    0.000000000000
 H    0.252062703235   -2.216624485077    0.892247000000
 H    0.252062703235   -2.216624485077   -0.892247000000
NA    1.996799838427    1.594062408312    0.000000000000
