10

 C    0.305305324969   -1.585043030644    0.000000000000
 C   -0.793993675031   -0.536183030644    0.000000000000
 N   -2.073601675031   -1.039972030644    0.000000000000
 H   -2.848274675031   -0.389388030644    0.000000000000
 H   -2.260272675031   -2.032023030644    0.000000000000
 O   -0.572401675031    0.676818969356    0.000000000000
 H    1.275970324969   -1.075898030644    0.000000000000
 H    0.225667324969   -2.226048030644    0.892247000000
 H    0.225667324969   -2.226048030644   -0.892247000000
NA    2.064582465167    1.618261821759    0.000000000000
