10

 C    0.199723811904   -1.622737212913    0.000000000000
 C   -0.899575188096   -0.573877212913    0.000000000000
 N   -2.179183188096   -1.077666212913    0.000000000000
 H   -2.953856188096   -0.427082212913    0.000000000000
 H   -2.365854188096   -2.069717212913    0.000000000000
 O   -0.677983188096    0.639124787087    0.000000000000
 H    1.170388811904   -1.113592212913    0.000000000000
 H    0.120085811904   -2.263742212913    0.892247000000
 H    0.120085811904   -2.263742212913   -0.892247000000
NA    2.335712972131    1.715059475548    0.000000000000
