10

 C    0.120537677106   -1.651007849615    0.000000000000
 C   -0.978761322894   -0.602147849615    0.000000000000
 N   -2.258369322894   -1.105936849615    0.000000000000
 H   -3.033042322894   -0.455352849615    0.000000000000
 H   -2.445040322894   -2.097987849615    0.000000000000
 O   -0.757169322894    0.610854150385    0.000000000000
 H    1.091202677106   -1.141862849615    0.000000000000
 H    0.040899677106   -2.292012849615    0.892247000000
 H    0.040899677106   -2.292012849615   -0.892247000000
NA    2.539060852354    1.787657715889    0.000000000000
