10

 C    0.041351542307   -1.679278486316    0.000000000000
 C   -1.057947457693   -0.630418486316    0.000000000000
 N   -2.337555457693   -1.134207486316    0.000000000000
 H   -3.112228457693   -0.483623486316    0.000000000000
 H   -2.524226457693   -2.126258486316    0.000000000000
 O   -0.836355457693    0.582583513684    0.000000000000
 H    1.012016542307   -1.170133486316    0.000000000000
 H   -0.038286457693   -2.320283486316    0.892247000000
 H   -0.038286457693   -2.320283486316   -0.892247000000
NA    2.742408732577    1.860255956231    0.000000000000
