10

 C   -0.011439214225   -1.698125577451    0.000000000000
 C   -1.110738214225   -0.649265577451    0.000000000000
 N   -2.390346214225   -1.153054577451    0.000000000000
 H   -3.165019214225   -0.502470577451    0.000000000000
 H   -2.577017214225   -2.145105577451    0.000000000000
 O   -0.889146214225    0.563736422549    0.000000000000
 H    0.959225785775   -1.188980577451    0.000000000000
 H   -0.091077214225   -2.339130577451    0.892247000000
 H   -0.091077214225   -2.339130577451   -0.892247000000
NA    2.877973986059    1.908654783125    0.000000000000
