10

 C   -0.143416105556   -1.745243305287    0.000000000000
 C   -1.242715105556   -0.696383305287    0.000000000000
 N   -2.522323105556   -1.200172305287    0.000000000000
 H   -3.296996105556   -0.549588305287    0.000000000000
 H   -2.708994105556   -2.192223305287    0.000000000000
 O   -1.021123105556    0.516618694713    0.000000000000
 H    0.827248894444   -1.236098305287    0.000000000000
 H   -0.223054105556   -2.386248305287    0.892247000000
 H   -0.223054105556   -2.386248305287   -0.892247000000
NA    3.216887119763    2.029651850361    0.000000000000
