10

 C   -0.222602240355   -1.773513941988    0.000000000000
 C   -1.321901240355   -0.724653941988    0.000000000000
 N   -2.601509240355   -1.228442941988    0.000000000000
 H   -3.376182240355   -0.577858941988    0.000000000000
 H   -2.788180240355   -2.220493941988    0.000000000000
 O   -1.100309240355    0.488348058012    0.000000000000
 H    0.748062759645   -1.264368941988    0.000000000000
 H   -0.302240240355   -2.414518941988    0.892247000000
 H   -0.302240240355   -2.414518941988   -0.892247000000
NA    3.420234999986    2.102250090703    0.000000000000
