10

 C   -0.248997618621   -1.782937487555    0.000000000000
 C   -1.348296618621   -0.734077487555    0.000000000000
 N   -2.627904618621   -1.237866487555    0.000000000000
 H   -3.402577618621   -0.587282487555    0.000000000000
 H   -2.814575618621   -2.229917487555    0.000000000000
 O   -1.126704618621    0.478924512445    0.000000000000
 H    0.721667381379   -1.273792487555    0.000000000000
 H   -0.328635618621   -2.423942487555    0.892247000000
 H   -0.328635618621   -2.423942487555   -0.892247000000
NA    3.488017626727    2.126449504150    0.000000000000
