10

 C   -0.328183753419   -1.811208124257    0.000000000000
 C   -1.427482753419   -0.762348124257    0.000000000000
 N   -2.707090753419   -1.266137124257    0.000000000000
 H   -3.481763753419   -0.615553124257    0.000000000000
 H   -2.893761753419   -2.258188124257    0.000000000000
 O   -1.205890753419    0.450653875743    0.000000000000
 H    0.642481246581   -1.302063124257    0.000000000000
 H   -0.407821753419   -2.452213124257    0.892247000000
 H   -0.407821753419   -2.452213124257   -0.892247000000
NA    3.691365506950    2.199047744491    0.000000000000
