10

 C   -0.380974509952   -1.830055215391    0.000000000000
 C   -1.480273509952   -0.781195215391    0.000000000000
 N   -2.759881509952   -1.284984215391    0.000000000000
 H   -3.534554509952   -0.634400215391    0.000000000000
 H   -2.946552509952   -2.277035215391    0.000000000000
 O   -1.258681509952    0.431806784609    0.000000000000
 H    0.589690490048   -1.320910215391    0.000000000000
 H   -0.460612509952   -2.471060215391    0.892247000000
 H   -0.460612509952   -2.471060215391   -0.892247000000
NA    3.826930760432    2.247446571386    0.000000000000
