10

 C   -0.592137536081   -1.905443579929    0.000000000000
 C   -1.691436536081   -0.856583579929    0.000000000000
 N   -2.971044536081   -1.360372579929    0.000000000000
 H   -3.745717536081   -0.709788579929    0.000000000000
 H   -3.157715536081   -2.352423579929    0.000000000000
 O   -1.469844536081    0.356418420071    0.000000000000
 H    0.378527463919   -1.396298579929    0.000000000000
 H   -0.671775536081   -2.546448579929    0.892247000000
 H   -0.671775536081   -2.546448579929   -0.892247000000
NA    4.369191774359    2.441041878963    0.000000000000
