10

 C   -0.618532914347   -1.914867125496    0.000000000000
 C   -1.717831914347   -0.866007125496    0.000000000000
 N   -2.997439914347   -1.369796125496    0.000000000000
 H   -3.772112914347   -0.719212125496    0.000000000000
 H   -3.184110914347   -2.361847125496    0.000000000000
 O   -1.496239914347    0.346994874504    0.000000000000
 H    0.352132085653   -1.405722125496    0.000000000000
 H   -0.698170914347   -2.555872125496    0.892247000000
 H   -0.698170914347   -2.555872125496   -0.892247000000
NA    4.436974401100    2.465241292410    0.000000000000
