10

 C   -0.671323670879   -1.933714216631    0.000000000000
 C   -1.770622670879   -0.884854216631    0.000000000000
 N   -3.050230670879   -1.388643216631    0.000000000000
 H   -3.824903670879   -0.738059216631    0.000000000000
 H   -3.236901670879   -2.380694216631    0.000000000000
 O   -1.549030670879    0.328147783369    0.000000000000
 H    0.299341329121   -1.424569216631    0.000000000000
 H   -0.750961670879   -2.574719216631    0.892247000000
 H   -0.750961670879   -2.574719216631   -0.892247000000
NA    4.572539654582    2.513640119305    0.000000000000
