10

 C   -0.697719049146   -1.943137762198    0.000000000000
 C   -1.797018049146   -0.894277762198    0.000000000000
 N   -3.076626049146   -1.398066762198    0.000000000000
 H   -3.851299049146   -0.747482762198    0.000000000000
 H   -3.263297049146   -2.390117762198    0.000000000000
 O   -1.575426049146    0.318724237802    0.000000000000
 H    0.272945950854   -1.433992762198    0.000000000000
 H   -0.777357049146   -2.584142762198    0.892247000000
 H   -0.777357049146   -2.584142762198   -0.892247000000
NA    4.640322281323    2.537839532752    0.000000000000
