10

 C   -0.829695940476   -1.990255490034    0.000000000000
 C   -1.928994940476   -0.941395490034    0.000000000000
 N   -3.208602940476   -1.445184490034    0.000000000000
 H   -3.983275940476   -0.794600490034    0.000000000000
 H   -3.395273940476   -2.437235490034    0.000000000000
 O   -1.707402940476    0.271606509966    0.000000000000
 H    0.140969059524   -1.481110490034    0.000000000000
 H   -0.909333940476   -2.631260490034    0.892247000000
 H   -0.909333940476   -2.631260490034   -0.892247000000
NA    4.979235415027    2.658836599988    0.000000000000
