10

 C   -0.856091318743   -1.999679035601    0.000000000000
 C   -1.955390318743   -0.950819035601    0.000000000000
 N   -3.234998318743   -1.454608035601    0.000000000000
 H   -4.009671318743   -0.804024035601    0.000000000000
 H   -3.421669318743   -2.446659035601    0.000000000000
 O   -1.733798318743    0.262182964399    0.000000000000
 H    0.114573681257   -1.490534035601    0.000000000000
 H   -0.935729318743   -2.640684035601    0.892247000000
 H   -0.935729318743   -2.640684035601   -0.892247000000
NA    5.047018041768    2.683036013435    0.000000000000
