10

 C   -0.961672831807   -2.037373217870    0.000000000000
 C   -2.060971831807   -0.988513217870    0.000000000000
 N   -3.340579831807   -1.492302217870    0.000000000000
 H   -4.115252831807   -0.841718217870    0.000000000000
 H   -3.527250831807   -2.484353217870    0.000000000000
 O   -1.839379831807    0.224488782130    0.000000000000
 H    0.008992168193   -1.528228217870    0.000000000000
 H   -1.041310831807   -2.678378217870    0.892247000000
 H   -1.041310831807   -2.678378217870   -0.892247000000
NA    5.318148548732    2.779833667224    0.000000000000
