10

 C   -1.014463588340   -2.056220309004    0.000000000000
 C   -2.113762588340   -1.007360309004    0.000000000000
 N   -3.393370588340   -1.511149309004    0.000000000000
 H   -4.168043588340   -0.860565309004    0.000000000000
 H   -3.580041588340   -2.503200309004    0.000000000000
 O   -1.892170588340    0.205641690996    0.000000000000
 H   -0.043798588340   -1.547075309004    0.000000000000
 H   -1.094101588340   -2.697225309004    0.892247000000
 H   -1.094101588340   -2.697225309004   -0.892247000000
NA    5.453713802214    2.828232494118    0.000000000000
