10

 C   -1.067254344872   -2.075067400139    0.000000000000
 C   -2.166553344872   -1.026207400139    0.000000000000
 N   -3.446161344872   -1.529996400139    0.000000000000
 H   -4.220834344872   -0.879412400139    0.000000000000
 H   -3.632832344872   -2.522047400139    0.000000000000
 O   -1.944961344872    0.186794599861    0.000000000000
 H   -0.096589344872   -1.565922400139    0.000000000000
 H   -1.146892344872   -2.716072400139    0.892247000000
 H   -1.146892344872   -2.716072400139   -0.892247000000
NA    5.589279055696    2.876631321013    0.000000000000
