10

 C   -1.225626614469   -2.131608673542    0.000000000000
 C   -2.324925614469   -1.082748673542    0.000000000000
 N   -3.604533614469   -1.586537673542    0.000000000000
 H   -4.379206614469   -0.935953673542    0.000000000000
 H   -3.791204614469   -2.578588673542    0.000000000000
 O   -2.103333614469    0.130253326458    0.000000000000
 H   -0.254961614469   -1.622463673542    0.000000000000
 H   -1.305264614469   -2.772613673542    0.892247000000
 H   -1.305264614469   -2.772613673542   -0.892247000000
NA    5.995974816141    3.021827801696    0.000000000000
