10

 C   -1.252021992735   -2.141032219109    0.000000000000
 C   -2.351320992735   -1.092172219109    0.000000000000
 N   -3.630928992735   -1.595961219109    0.000000000000
 H   -4.405601992735   -0.945377219109    0.000000000000
 H   -3.817599992735   -2.588012219109    0.000000000000
 O   -2.129728992735    0.120829780891    0.000000000000
 H   -0.281356992735   -1.631887219109    0.000000000000
 H   -1.331659992735   -2.782037219109    0.892247000000
 H   -1.331659992735   -2.782037219109   -0.892247000000
NA    6.063757442882    3.046027215143    0.000000000000
