10

 C   -1.357603505800   -2.178726401378    0.000000000000
 C   -2.456902505800   -1.129866401378    0.000000000000
 N   -3.736510505800   -1.633655401378    0.000000000000
 H   -4.511183505800   -0.983071401378    0.000000000000
 H   -3.923181505800   -2.625706401378    0.000000000000
 O   -2.235310505800    0.083135598622    0.000000000000
 H   -0.386938505800   -1.669581401378    0.000000000000
 H   -1.437241505800   -2.819731401378    0.892247000000
 H   -1.437241505800   -2.819731401378   -0.892247000000
NA    6.334887949846    3.142824868932    0.000000000000
