10

 C   -1.410394262332   -2.197573492512    0.000000000000
 C   -2.509693262332   -1.148713492512    0.000000000000
 N   -3.789301262332   -1.652502492512    0.000000000000
 H   -4.563974262332   -1.001918492512    0.000000000000
 H   -3.975972262332   -2.644553492512    0.000000000000
 O   -2.288101262332    0.064288507488    0.000000000000
 H   -0.439729262332   -1.688428492512    0.000000000000
 H   -1.490032262332   -2.838578492512    0.892247000000
 H   -1.490032262332   -2.838578492512   -0.892247000000
NA    6.470453203328    3.191223695826    0.000000000000
