10

 C   -1.436789640598   -2.206997038080    0.000000000000
 C   -2.536088640598   -1.158137038080    0.000000000000
 N   -3.815696640598   -1.661926038080    0.000000000000
 H   -4.590369640598   -1.011342038080    0.000000000000
 H   -4.002367640598   -2.653977038080    0.000000000000
 O   -2.314496640598    0.054864961920    0.000000000000
 H   -0.466124640598   -1.697852038080    0.000000000000
 H   -1.516427640598   -2.848002038080    0.892247000000
 H   -1.516427640598   -2.848002038080   -0.892247000000
NA    6.538235830069    3.215423109273    0.000000000000
