10

 C   -1.489580397131   -2.225844129214    0.000000000000
 C   -2.588879397131   -1.176984129214    0.000000000000
 N   -3.868487397131   -1.680773129214    0.000000000000
 H   -4.643160397131   -1.030189129214    0.000000000000
 H   -4.055158397131   -2.672824129214    0.000000000000
 O   -2.367287397131    0.036017870786    0.000000000000
 H   -0.518915397131   -1.716699129214    0.000000000000
 H   -1.569218397131   -2.866849129214    0.892247000000
 H   -1.569218397131   -2.866849129214   -0.892247000000
NA    6.673801083551    3.263821936168    0.000000000000
