10

 C   -1.542371153663   -2.244691220348    0.000000000000
 C   -2.641670153663   -1.195831220348    0.000000000000
 N   -3.921278153663   -1.699620220348    0.000000000000
 H   -4.695951153663   -1.049036220348    0.000000000000
 H   -4.107949153663   -2.691671220348    0.000000000000
 O   -2.420078153663    0.017170779652    0.000000000000
 H   -0.571706153663   -1.735546220348    0.000000000000
 H   -1.622009153663   -2.885696220348    0.892247000000
 H   -1.622009153663   -2.885696220348   -0.892247000000
NA    6.809366337032    3.312220763062    0.000000000000
