17

 C   -1.174545163733   -5.478931604052    0.000000000000
 H   -1.350595163733   -4.404971604052    0.000000000000
 H   -1.634725163733   -5.939001604052    0.884210000000
 H   -1.634725163733   -5.939001604052   -0.884210000000
 C    0.298284836267   -5.763531604052    0.000000000000
 O    1.186224836267   -4.924961604052    0.000000000000
 O    0.535164836267   -7.102481604052    0.000000000000
 H    1.501844836267   -7.219721604052    0.000000000000
CS   -0.296195163733    1.229738395948    0.000000000000
 O   -0.530358437250    2.201935681140    0.000000000000
 C    0.357581180545    3.040511977043    0.000000000000
 O    0.120704673152    4.379460216463    0.000000000000
 H   -0.845972702617    4.496692416716    0.000000000000
 C    1.830414746602    2.755904715900    0.000000000000
 H    2.006468496826    1.681949315927    0.000000000000
 H    2.290598499908    3.215984115714   -0.884212916418
 H    2.290598499908    3.215984115714    0.884212916418
