17

 C   -1.163432397309   -5.525069502565    0.000000000000
 H   -1.339482397309   -4.451109502565    0.000000000000
 H   -1.623612397309   -5.985139502565    0.884210000000
 H   -1.623612397309   -5.985139502565   -0.884210000000
 C    0.309397602691   -5.809669502565    0.000000000000
 O    1.197337602691   -4.971099502565    0.000000000000
 O    0.546277602691   -7.148619502565    0.000000000000
 H    1.512957602691   -7.265859502565    0.000000000000
CS   -0.285082397309    1.183600497435    0.000000000000
 O   -0.566078325529    2.350237239666    0.000000000000
 C    0.321861292266    3.188813535569    0.000000000000
 O    0.084984784873    4.527761774989    0.000000000000
 H   -0.881692590896    4.644993975242    0.000000000000
 C    1.794694858323    2.904206274426    0.000000000000
 H    1.970748608547    1.830250874452    0.000000000000
 H    2.254878611629    3.364285674239   -0.884212916418
 H    2.254878611629    3.364285674239    0.884212916418
