17

 C   -1.157876014096   -5.548138451821    0.000000000000
 H   -1.333926014096   -4.474178451821    0.000000000000
 H   -1.618056014096   -6.008208451821    0.884210000000
 H   -1.618056014096   -6.008208451821   -0.884210000000
 C    0.314953985904   -5.832738451821    0.000000000000
 O    1.202893985904   -4.994168451821    0.000000000000
 O    0.551833985904   -7.171688451821    0.000000000000
 H    1.518513985904   -7.288928451821    0.000000000000
CS   -0.279526014096    1.160531548179    0.000000000000
 O   -0.583938269669    2.424388018929    0.000000000000
 C    0.304001348126    3.262964314832    0.000000000000
 O    0.067124840734    4.601912554252    0.000000000000
 H   -0.899552535035    4.719144754505    0.000000000000
 C    1.776834914183    2.978357053689    0.000000000000
 H    1.952888664407    1.904401653715    0.000000000000
 H    2.237018667490    3.438436453502   -0.884212916418
 H    2.237018667490    3.438436453502    0.884212916418
