17

 C   -1.102312181974   -5.778827944385    0.000000000000
 H   -1.278362181974   -4.704867944385    0.000000000000
 H   -1.562492181974   -6.238897944385    0.884210000000
 H   -1.562492181974   -6.238897944385   -0.884210000000
 C    0.370517818026   -6.063427944385    0.000000000000
 O    1.258457818026   -5.224857944385    0.000000000000
 O    0.607397818026   -7.402377944385    0.000000000000
 H    1.574077818026   -7.519617944385    0.000000000000
CS   -0.223962181974    0.929842055615    0.000000000000
 O   -0.762537711063    3.165895811558    0.000000000000
 C    0.125401906732    4.004472107461    0.000000000000
 O   -0.111474600661    5.343420346881    0.000000000000
 H   -1.078151976430    5.460652547134    0.000000000000
 C    1.598235472789    3.719864846318    0.000000000000
 H    1.774289223013    2.645909446344    0.000000000000
 H    2.058419226096    4.179944246131   -0.884212916418
 H    2.058419226096    4.179944246131    0.884212916418
