17

 C   -1.074530265912   -5.894172690667    0.000000000000
 H   -1.250580265912   -4.820212690667    0.000000000000
 H   -1.534710265912   -6.354242690667    0.884210000000
 H   -1.534710265912   -6.354242690667   -0.884210000000
 C    0.398299734088   -6.178772690667    0.000000000000
 O    1.286239734088   -5.340202690667    0.000000000000
 O    0.635179734088   -7.517722690667    0.000000000000
 H    1.601859734088   -7.634962690667    0.000000000000
CS   -0.196180265912    0.814497309333    0.000000000000
 O   -0.851837431760    3.536649707873    0.000000000000
 C    0.036102186035    4.375226003775    0.000000000000
 O   -0.200774321358    5.714174243195    0.000000000000
 H   -1.167451697127    5.831406443449    0.000000000000
 C    1.508935752092    4.090618742632    0.000000000000
 H    1.684989502316    3.016663342659    0.000000000000
 H    1.969119505399    4.550698142446   -0.884212916418
 H    1.969119505399    4.550698142446    0.884212916418
