17

 C   -1.063417499488   -5.940310589179    0.000000000000
 H   -1.239467499488   -4.866350589179    0.000000000000
 H   -1.523597499488   -6.400380589179    0.884210000000
 H   -1.523597499488   -6.400380589179   -0.884210000000
 C    0.409412500512   -6.224910589179    0.000000000000
 O    1.297352500512   -5.386340589179    0.000000000000
 O    0.646292500512   -7.563860589179    0.000000000000
 H    1.612972500512   -7.681100589179    0.000000000000
CS   -0.185067499488    0.768359410821    0.000000000000
 O   -0.887557320039    3.684951266398    0.000000000000
 C    0.000382297756    4.523527562301    0.000000000000
 O   -0.236494209637    5.862475801721    0.000000000000
 H   -1.203171585406    5.979708001975    0.000000000000
 C    1.473215863813    4.238920301158    0.000000000000
 H    1.649269614037    3.164964901185    0.000000000000
 H    1.933399617120    4.698999700972   -0.884212916418
 H    1.933399617120    4.698999700972    0.884212916418
