17

 C   -1.041191966639   -6.032586386205    0.000000000000
 H   -1.217241966639   -4.958626386205    0.000000000000
 H   -1.501371966639   -6.492656386205    0.884210000000
 H   -1.501371966639   -6.492656386205   -0.884210000000
 C    0.431638033361   -6.317186386205    0.000000000000
 O    1.319578033361   -5.478616386205    0.000000000000
 O    0.668518033361   -7.656136386205    0.000000000000
 H    1.635198033361   -7.773376386205    0.000000000000
CS   -0.162841966639    0.676083613795    0.000000000000
 O   -0.958997096597    3.981554383450    0.000000000000
 C   -0.071057478802    4.820130679353    0.000000000000
 O   -0.307933986194    6.159078918773    0.000000000000
 H   -1.274611361963    6.276311119026    0.000000000000
 C    1.401776087256    4.535523418210    0.000000000000
 H    1.577829837479    3.461568018236    0.000000000000
 H    1.861959840562    4.995602818023   -0.884212916418
 H    1.861959840562    4.995602818023    0.884212916418
