17

 C   -1.030079200214   -6.078724284717    0.000000000000
 H   -1.206129200214   -5.004764284717    0.000000000000
 H   -1.490259200214   -6.538794284717    0.884210000000
 H   -1.490259200214   -6.538794284717   -0.884210000000
 C    0.442750799786   -6.363324284717    0.000000000000
 O    1.330690799786   -5.524754284717    0.000000000000
 O    0.679630799786   -7.702274284717    0.000000000000
 H    1.646310799786   -7.819514284717    0.000000000000
CS   -0.151729200214    0.629945715283    0.000000000000
 O   -0.994716984875    4.129855941976    0.000000000000
 C   -0.106777367080    4.968432237879    0.000000000000
 O   -0.343653874473    6.307380477299    0.000000000000
 H   -1.310331250242    6.424612677552    0.000000000000
 C    1.366056198977    4.683824976736    0.000000000000
 H    1.542109949201    3.609869576762    0.000000000000
 H    1.826239952283    5.143904376549   -0.884212916418
 H    1.826239952283    5.143904376549    0.884212916418
