17

 C   -1.013410050577   -6.147931132486    0.000000000000
 H   -1.189460050577   -5.073971132486    0.000000000000
 H   -1.473590050577   -6.608001132486    0.884210000000
 H   -1.473590050577   -6.608001132486   -0.884210000000
 C    0.459419949423   -6.432531132486    0.000000000000
 O    1.347359949423   -5.593961132486    0.000000000000
 O    0.696299949423   -7.771481132486    0.000000000000
 H    1.662979949423   -7.888721132486    0.000000000000
CS   -0.135060050577    0.560738867514    0.000000000000
 O   -1.048296817294    4.352308279765    0.000000000000
 C   -0.160357199499    5.190884575667    0.000000000000
 O   -0.397233706891    6.529832815087    0.000000000000
 H   -1.363911082660    6.647065015341    0.000000000000
 C    1.312476366558    4.906277314524    0.000000000000
 H    1.488530116782    3.832321914551    0.000000000000
 H    1.772660119865    5.366356714338   -0.884212916418
 H    1.772660119865    5.366356714338    0.884212916418
