17

 C   -0.968958984879   -6.332482726537    0.000000000000
 H   -1.145008984879   -5.258522726537    0.000000000000
 H   -1.429138984879   -6.792552726537    0.884210000000
 H   -1.429138984879   -6.792552726537   -0.884210000000
 C    0.503871015121   -6.617082726537    0.000000000000
 O    1.391811015121   -5.778512726537    0.000000000000
 O    0.740751015121   -7.956032726537    0.000000000000
 H    1.707431015121   -8.073272726537    0.000000000000
CS   -0.090608984879    0.376187273463    0.000000000000
 O   -1.191176370409    4.945514513868    0.000000000000
 C   -0.303236752614    5.784090809771    0.000000000000
 O   -0.540113260007    7.123039049190    0.000000000000
 H   -1.506790635776    7.240271249444    0.000000000000
 C    1.169596813443    5.499483548628    0.000000000000
 H    1.345650563667    4.425528148654    0.000000000000
 H    1.629780566750    5.959562948441   -0.884212916418
 H    1.629780566750    5.959562948441    0.884212916418
