17

 C   -0.957846218455   -6.378620625050    0.000000000000
 H   -1.133896218455   -5.304660625050    0.000000000000
 H   -1.418026218455   -6.838690625050    0.884210000000
 H   -1.418026218455   -6.838690625050   -0.884210000000
 C    0.514983781545   -6.663220625050    0.000000000000
 O    1.402923781545   -5.824650625050    0.000000000000
 O    0.751863781545   -8.002170625050    0.000000000000
 H    1.718543781545   -8.119410625050    0.000000000000
CS   -0.079496218455    0.330049374950    0.000000000000
 O   -1.226896258688    5.093816072394    0.000000000000
 C   -0.338956640893    5.932392368296    0.000000000000
 O   -0.575833148286    7.271340607716    0.000000000000
 H   -1.542510524055    7.388572807970    0.000000000000
 C    1.133876925164    5.647785107153    0.000000000000
 H    1.309930675388    4.573829707180    0.000000000000
 H    1.594060678471    6.107864506967   -0.884212916418
 H    1.594060678471    6.107864506967    0.884212916418
