17

 C   -0.952289835242   -6.401689574306    0.000000000000
 H   -1.128339835242   -5.327729574306    0.000000000000
 H   -1.412469835242   -6.861759574306    0.884210000000
 H   -1.412469835242   -6.861759574306   -0.884210000000
 C    0.520540164758   -6.686289574306    0.000000000000
 O    1.408480164758   -5.847719574306    0.000000000000
 O    0.757420164758   -8.025239574306    0.000000000000
 H    1.724100164758   -8.142479574306    0.000000000000
CS   -0.073939835242    0.306980425694    0.000000000000
 O   -1.244756202827    5.167966851656    0.000000000000
 C   -0.356816585032    6.006543147559    0.000000000000
 O   -0.593693092425    7.345491386979    0.000000000000
 H   -1.560370468194    7.462723587233    0.000000000000
 C    1.116016981025    5.721935886416    0.000000000000
 H    1.292070731249    4.647980486443    0.000000000000
 H    1.576200734331    6.182015286230   -0.884212916418
 H    1.576200734331    6.182015286230    0.884212916418
