17

 C   -0.868944087058   -6.747723813152    0.000000000000
 H   -1.044994087058   -5.673763813152    0.000000000000
 H   -1.329124087058   -7.207793813152    0.884210000000
 H   -1.329124087058   -7.207793813152   -0.884210000000
 C    0.603885912942   -7.032323813152    0.000000000000
 O    1.491825912942   -6.193753813152    0.000000000000
 O    0.840765912942   -8.371273813152    0.000000000000
 H    1.807445912942   -8.488513813152    0.000000000000
CS    0.009405912942   -0.039053813152    0.000000000000
 O   -1.512655364919    6.280228540600    0.000000000000
 C   -0.624715747124    7.118804836503    0.000000000000
 O   -0.861592254516    8.457753075923    0.000000000000
 H   -1.828269630285    8.574985276176    0.000000000000
 C    0.848117818933    6.834197575360    0.000000000000
 H    1.024171569157    5.760242175386    0.000000000000
 H    1.308301572240    7.294276975173   -0.884212916418
 H    1.308301572240    7.294276975173    0.884212916418
