17

 C   -0.857831320634   -6.793861711664    0.000000000000
 H   -1.033881320634   -5.719901711664    0.000000000000
 H   -1.318011320634   -7.253931711664    0.884210000000
 H   -1.318011320634   -7.253931711664   -0.884210000000
 C    0.614998679366   -7.078461711664    0.000000000000
 O    1.502938679366   -6.239891711664    0.000000000000
 O    0.851878679366   -8.417411711664    0.000000000000
 H    1.818558679366   -8.534651711664    0.000000000000
CS    0.020518679366   -0.085191711664    0.000000000000
 O   -1.548375253198    6.428530099126    0.000000000000
 C   -0.660435635403    7.267106395029    0.000000000000
 O   -0.897312142795    8.606054634449    0.000000000000
 H   -1.863989518564    8.723286834702    0.000000000000
 C    0.812397930655    6.982499133886    0.000000000000
 H    0.988451680878    5.908543733912    0.000000000000
 H    1.272581683961    7.442578533699   -0.884212916418
 H    1.272581683961    7.442578533699    0.884212916418
