17

 C   -0.852274937421   -6.816930660921    0.000000000000
 H   -1.028324937421   -5.742970660921    0.000000000000
 H   -1.312454937421   -7.277000660921    0.884210000000
 H   -1.312454937421   -7.277000660921   -0.884210000000
 C    0.620555062579   -7.101530660921    0.000000000000
 O    1.508495062579   -6.262960660921    0.000000000000
 O    0.857435062579   -8.440480660921    0.000000000000
 H    1.824115062579   -8.557720660921    0.000000000000
CS    0.026075062579   -0.108260660921    0.000000000000
 O   -1.566235197337    6.502680878389    0.000000000000
 C   -0.678295579542    7.341257174292    0.000000000000
 O   -0.915172086935    8.680205413712    0.000000000000
 H   -1.881849462704    8.797437613965    0.000000000000
 C    0.794537986515    7.056649913149    0.000000000000
 H    0.970591736739    5.982694513175    0.000000000000
 H    1.254721739822    7.516729312962   -0.884212916418
 H    1.254721739822    7.516729312962    0.884212916418
