17

 C   -0.846718554209   -6.839999610177    0.000000000000
 H   -1.022768554209   -5.766039610177    0.000000000000
 H   -1.306898554209   -7.300069610177    0.884210000000
 H   -1.306898554209   -7.300069610177   -0.884210000000
 C    0.626111445791   -7.124599610177    0.000000000000
 O    1.514051445791   -6.286029610177    0.000000000000
 O    0.862991445791   -8.463549610177    0.000000000000
 H    1.829671445791   -8.580789610177    0.000000000000
CS    0.031631445791   -0.131329610177    0.000000000000
 O   -1.584095141476    6.576831657652    0.000000000000
 C   -0.696155523681    7.415407953555    0.000000000000
 O   -0.933032031074    8.754356192974    0.000000000000
 H   -1.899709406843    8.871588393228    0.000000000000
 C    0.776678042376    7.130800692411    0.000000000000
 H    0.952731792600    6.056845292438    0.000000000000
 H    1.236861795682    7.590880092225   -0.884212916418
 H    1.236861795682    7.590880092225    0.884212916418
