17

 C   -0.835605787784   -6.886137508690    0.000000000000
 H   -1.011655787784   -5.812177508690    0.000000000000
 H   -1.295785787784   -7.346207508690    0.884210000000
 H   -1.295785787784   -7.346207508690   -0.884210000000
 C    0.637224212216   -7.170737508690    0.000000000000
 O    1.525164212216   -6.332167508690    0.000000000000
 O    0.874104212216   -8.509687508690    0.000000000000
 H    1.840784212216   -8.626927508690    0.000000000000
CS    0.042744212216   -0.177467508690    0.000000000000
 O   -1.619815029755    6.725133216178    0.000000000000
 C   -0.731875411960    7.563709512080    0.000000000000
 O   -0.968751919353    8.902657751500    0.000000000000
 H   -1.935429295122    9.019889951754    0.000000000000
 C    0.740958154097    7.279102250937    0.000000000000
 H    0.917011904321    6.205146850964    0.000000000000
 H    1.201141907403    7.739181650751   -0.884212916418
 H    1.201141907403    7.739181650751    0.884212916418
