17

 C   -0.796711105298   -7.047620153484    0.000000000000
 H   -0.972761105298   -5.973660153484    0.000000000000
 H   -1.256891105298   -7.507690153484    0.884210000000
 H   -1.256891105298   -7.507690153484   -0.884210000000
 C    0.676118894702   -7.332220153484    0.000000000000
 O    1.564058894702   -6.493650153484    0.000000000000
 O    0.912998894702   -8.671170153484    0.000000000000
 H    1.879678894702   -8.788410153484    0.000000000000
CS    0.081638894702   -0.338950153484    0.000000000000
 O   -1.744834638731    7.244188671018    0.000000000000
 C   -0.856895020936    8.082764966921    0.000000000000
 O   -1.093771528329    9.421713206341    0.000000000000
 H   -2.060448904098    9.538945406594    0.000000000000
 C    0.615938545121    7.798157705778    0.000000000000
 H    0.791992295345    6.724202305804    0.000000000000
 H    1.076122298427    8.258237105591   -0.884212916418
 H    1.076122298427    8.258237105591    0.884212916418
