17

 C   -0.791154722086   -7.070689102741    0.000000000000
 H   -0.967204722086   -5.996729102741    0.000000000000
 H   -1.251334722086   -7.530759102741    0.884210000000
 H   -1.251334722086   -7.530759102741   -0.884210000000
 C    0.681675277914   -7.355289102741    0.000000000000
 O    1.569615277914   -6.516719102741    0.000000000000
 O    0.918555277914   -8.694239102741    0.000000000000
 H    1.885235277914   -8.811479102741    0.000000000000
CS    0.087195277914   -0.362019102741    0.000000000000
 O   -1.762694582871    7.318339450281    0.000000000000
 C   -0.874754965076    8.156915746184    0.000000000000
 O   -1.111631472468    9.495863985603    0.000000000000
 H   -2.078308848237    9.613096185857    0.000000000000
 C    0.598078600981    7.872308485041    0.000000000000
 H    0.774132351205    6.798353085067    0.000000000000
 H    1.058262354288    8.332387884854   -0.884212916418
 H    1.058262354288    8.332387884854    0.884212916418
