17

 C   -0.768929189237   -7.162964899766    0.000000000000
 H   -0.944979189237   -6.089004899766    0.000000000000
 H   -1.229109189237   -7.623034899766    0.884210000000
 H   -1.229109189237   -7.623034899766   -0.884210000000
 C    0.703900810763   -7.447564899766    0.000000000000
 O    1.591840810763   -6.608994899766    0.000000000000
 O    0.940780810763   -8.786514899766    0.000000000000
 H    1.907460810763   -8.903754899766    0.000000000000
CS    0.109420810763   -0.454294899766    0.000000000000
 O   -1.834134359428    7.614942567332    0.000000000000
 C   -0.946194741633    8.453518863235    0.000000000000
 O   -1.183071249026    9.792467102655    0.000000000000
 H   -2.149748624795    9.909699302909    0.000000000000
 C    0.526638824424    8.168911602092    0.000000000000
 H    0.702692574648    7.094956202119    0.000000000000
 H    0.986822577730    8.628991001906   -0.884212916418
 H    0.986822577730    8.628991001906    0.884212916418
