17

 C   -0.746703656388   -7.255240696791    0.000000000000
 H   -0.922753656388   -6.181280696791    0.000000000000
 H   -1.206883656388   -7.715310696791    0.884210000000
 H   -1.206883656388   -7.715310696791   -0.884210000000
 C    0.726126343612   -7.539840696791    0.000000000000
 O    1.614066343612   -6.701270696791    0.000000000000
 O    0.963006343612   -8.878790696791    0.000000000000
 H    1.929686343612   -8.996030696791    0.000000000000
CS    0.131646343612   -0.546570696791    0.000000000000
 O   -1.905574135986    7.911545684384    0.000000000000
 C   -1.017634518191    8.750121980287    0.000000000000
 O   -1.254511025584   10.089070219707    0.000000000000
 H   -2.221188401353   10.206302419960    0.000000000000
 C    0.455199047866    8.465514719144    0.000000000000
 H    0.631252798090    7.391559319170    0.000000000000
 H    0.915382801173    8.925594118957   -0.884212916418
 H    0.915382801173    8.925594118957    0.884212916418
