17

 C   -0.741147273176   -7.278309646048    0.000000000000
 H   -0.917197273176   -6.204349646048    0.000000000000
 H   -1.201327273176   -7.738379646048    0.884210000000
 H   -1.201327273176   -7.738379646048   -0.884210000000
 C    0.731682726824   -7.562909646048    0.000000000000
 O    1.619622726824   -6.724339646048    0.000000000000
 O    0.968562726824   -8.901859646048    0.000000000000
 H    1.935242726824   -9.019099646048    0.000000000000
CS    0.137202726824   -0.569639646048    0.000000000000
 O   -1.923434080125    7.985696463647    0.000000000000
 C   -1.035494462330    8.824272759550    0.000000000000
 O   -1.272370969723   10.163220998970    0.000000000000
 H   -2.239048345492   10.280453199223    0.000000000000
 C    0.437339103727    8.539665498407    0.000000000000
 H    0.613392853951    7.465710098433    0.000000000000
 H    0.897522857033    8.999744898220   -0.884212916418
 H    0.897522857033    8.999744898220    0.884212916418
