17

 C   -0.735590889963   -7.301378595304    0.000000000000
 H   -0.911640889963   -6.227418595304    0.000000000000
 H   -1.195770889963   -7.761448595304    0.884210000000
 H   -1.195770889963   -7.761448595304   -0.884210000000
 C    0.737239110037   -7.585978595304    0.000000000000
 O    1.625179110037   -6.747408595304    0.000000000000
 O    0.974119110037   -8.924928595304    0.000000000000
 H    1.940799110037   -9.042168595304    0.000000000000
CS    0.142759110037   -0.592708595304    0.000000000000
 O   -1.941294024265    8.059847242910    0.000000000000
 C   -1.053354406470    8.898423538813    0.000000000000
 O   -1.290230913863   10.237371778233    0.000000000000
 H   -2.256908289632   10.354603978486    0.000000000000
 C    0.419479159587    8.613816277670    0.000000000000
 H    0.595532909811    7.539860877696    0.000000000000
 H    0.879662912894    9.073895677483   -0.884212916418
 H    0.879662912894    9.073895677483    0.884212916418
