17

 C   -0.730034506751   -7.324447544560    0.000000000000
 H   -0.906084506751   -6.250487544560    0.000000000000
 H   -1.190214506751   -7.784517544560    0.884210000000
 H   -1.190214506751   -7.784517544560   -0.884210000000
 C    0.742795493249   -7.609047544560    0.000000000000
 O    1.630735493249   -6.770477544560    0.000000000000
 O    0.979675493249   -8.947997544560    0.000000000000
 H    1.946355493249   -9.065237544560    0.000000000000
CS    0.148315493249   -0.615777544560    0.000000000000
 O   -1.959153968404    8.133998022173    0.000000000000
 C   -1.071214350609    8.972574318076    0.000000000000
 O   -1.308090858002   10.311522557495    0.000000000000
 H   -2.274768233771   10.428754757749    0.000000000000
 C    0.401619215448    8.687967056932    0.000000000000
 H    0.577672965672    7.614011656959    0.000000000000
 H    0.861802968754    9.148046456746   -0.884212916418
 H    0.861802968754    9.148046456746    0.884212916418
