17

 C   -0.724478123539   -7.347516493817    0.000000000000
 H   -0.900528123539   -6.273556493817    0.000000000000
 H   -1.184658123539   -7.807586493817    0.884210000000
 H   -1.184658123539   -7.807586493817   -0.884210000000
 C    0.748351876461   -7.632116493817    0.000000000000
 O    1.636291876461   -6.793546493817    0.000000000000
 O    0.985231876461   -8.971066493817    0.000000000000
 H    1.951911876461   -9.088306493817    0.000000000000
CS    0.153871876461   -0.638846493817    0.000000000000
 O   -1.977013912544    8.208148801436    0.000000000000
 C   -1.089074294749    9.046725097339    0.000000000000
 O   -1.325950802141   10.385673336758    0.000000000000
 H   -2.292628177910   10.502905537012    0.000000000000
 C    0.383759271308    8.762117836195    0.000000000000
 H    0.559813021532    7.688162436222    0.000000000000
 H    0.843943024615    9.222197236009   -0.884212916418
 H    0.843943024615    9.222197236009    0.884212916418
