17

 C   -0.713365357114   -7.393654392329    0.000000000000
 H   -0.889415357114   -6.319694392329    0.000000000000
 H   -1.173545357114   -7.853724392329    0.884210000000
 H   -1.173545357114   -7.853724392329   -0.884210000000
 C    0.759464642886   -7.678254392329    0.000000000000
 O    1.647404642886   -6.839684392329    0.000000000000
 O    0.996344642886   -9.017204392329    0.000000000000
 H    1.963024642886   -9.134444392329    0.000000000000
CS    0.164984642886   -0.684984392329    0.000000000000
 O   -2.012733800823    8.356450359961    0.000000000000
 C   -1.124794183028    9.195026655864    0.000000000000
 O   -1.361670690420   10.533974895284    0.000000000000
 H   -2.328348066189   10.651207095538    0.000000000000
 C    0.348039383030    8.910419394721    0.000000000000
 H    0.524093133253    7.836463994748    0.000000000000
 H    0.808223136336    9.370498794535   -0.884212916418
 H    0.808223136336    9.370498794535    0.884212916418
