17

 C   -0.702252590690   -7.439792290842    0.000000000000
 H   -0.878302590690   -6.365832290842    0.000000000000
 H   -1.162432590690   -7.899862290842    0.884210000000
 H   -1.162432590690   -7.899862290842   -0.884210000000
 C    0.770577409310   -7.724392290842    0.000000000000
 O    1.658517409310   -6.885822290842    0.000000000000
 O    1.007457409310   -9.063342290842    0.000000000000
 H    1.974137409310   -9.180582290842    0.000000000000
CS    0.176097409310   -0.731122290842    0.000000000000
 O   -2.048453689101    8.504751918487    0.000000000000
 C   -1.160514071306    9.343328214390    0.000000000000
 O   -1.397390578699   10.682276453810    0.000000000000
 H   -2.364067954468   10.799508654063    0.000000000000
 C    0.312319494751    9.058720953247    0.000000000000
 H    0.488373244975    7.984765553274    0.000000000000
 H    0.772503248057    9.518800353061   -0.884212916418
 H    0.772503248057    9.518800353061    0.884212916418
