17

 C   -0.696696207477   -7.462861240098    0.000000000000
 H   -0.872746207477   -6.388901240098    0.000000000000
 H   -1.156876207477   -7.922931240098    0.884210000000
 H   -1.156876207477   -7.922931240098   -0.884210000000
 C    0.776133792523   -7.747461240098    0.000000000000
 O    1.664073792523   -6.908891240098    0.000000000000
 O    1.013013792523   -9.086411240098    0.000000000000
 H    1.979693792523   -9.203651240098    0.000000000000
CS    0.181653792523   -0.754191240098    0.000000000000
 O   -2.066313633241    8.578902697750    0.000000000000
 C   -1.178374015446    9.417478993653    0.000000000000
 O   -1.415250522839   10.756427233073    0.000000000000
 H   -2.381927898608   10.873659433326    0.000000000000
 C    0.294459550611    9.132871732510    0.000000000000
 H    0.470513300835    8.058916332536    0.000000000000
 H    0.754643303918    9.592951132323   -0.884212916418
 H    0.754643303918    9.592951132323    0.884212916418
