17

 C   -0.685583441053   -7.508999138611    0.000000000000
 H   -0.861633441053   -6.435039138611    0.000000000000
 H   -1.145763441053   -7.969069138611    0.884210000000
 H   -1.145763441053   -7.969069138611   -0.884210000000
 C    0.787246558947   -7.793599138611    0.000000000000
 O    1.675186558947   -6.955029138611    0.000000000000
 O    1.024126558947   -9.132549138611    0.000000000000
 H    1.990806558947   -9.249789138611    0.000000000000
CS    0.192766558947   -0.800329138611    0.000000000000
 O   -2.102033521520    8.727204256276    0.000000000000
 C   -1.214093903725    9.565780552179    0.000000000000
 O   -1.450970411117   10.904728791599    0.000000000000
 H   -2.417647786886   11.021960991852    0.000000000000
 C    0.258739662332    9.281173291036    0.000000000000
 H    0.434793412556    8.207217891062    0.000000000000
 H    0.718923415639    9.741252690849   -0.884212916418
 H    0.718923415639    9.741252690849    0.884212916418
