7

 C   -1.090907948594    1.467848384779    0.000000000000
 O   -1.090907948594    0.032962384779    0.000000000000
 H   -0.171897948594   -0.263838615221    0.000000000000
 H   -2.144226948594    1.775837384779    0.000000000000
 H   -0.602241948594    1.878781384779    0.899440000000
 H   -0.602241948594    1.878781384779   -0.899440000000
 K    0.874866269775   -0.601898774279    0.000000000000
