7

 C   -1.195367882817    1.501584484427    0.000000000000
 O   -1.195367882817    0.066698484427    0.000000000000
 H   -0.276357882817   -0.230102515573    0.000000000000
 H   -2.248686882817    1.809573484427    0.000000000000
 H   -0.706701882817    1.912517484427    0.899440000000
 H   -0.706701882817    1.912517484427   -0.899440000000
 K    0.960727102528   -0.629628158096    0.000000000000
