7

 C   -1.299827817041    1.535320584075    0.000000000000
 O   -1.299827817041    0.100434584075    0.000000000000
 H   -0.380817817041   -0.196366415925    0.000000000000
 H   -2.353146817041    1.843309584075    0.000000000000
 H   -0.811161817041    1.946253584075    0.899440000000
 H   -0.811161817041    1.946253584075   -0.899440000000
 K    1.046587935280   -0.657357541914    0.000000000000
