7

 C   -1.508747685488    1.602792783371    0.000000000000
 O   -1.508747685488    0.167906783371    0.000000000000
 H   -0.589737685488   -0.128894216629    0.000000000000
 H   -2.562066685488    1.910781783371    0.000000000000
 H   -1.020081685488    2.013725783371    0.899440000000
 H   -1.020081685488    2.013725783371   -0.899440000000
 K    1.218309600786   -0.712816309548    0.000000000000
