7

 C   -1.560977652600    1.619660833195    0.000000000000
 O   -1.560977652600    0.184774833195    0.000000000000
 H   -0.641967652600   -0.112026166805    0.000000000000
 H   -2.614296652600    1.927649833195    0.000000000000
 H   -1.072311652600    2.030593833195    0.899440000000
 H   -1.072311652600    2.030593833195   -0.899440000000
 K    1.261240017162   -0.726681001457    0.000000000000
