7

 C   -1.769897521047    1.687133032491    0.000000000000
 O   -1.769897521047    0.252247032491    0.000000000000
 H   -0.850887521047   -0.044553967509    0.000000000000
 H   -2.823216521047    1.995122032491    0.000000000000
 H   -1.281231521047    2.098066032491    0.899440000000
 H   -1.281231521047    2.098066032491   -0.899440000000
 K    1.432961682667   -0.782139769091    0.000000000000
