7

 C   -1.978817389494    1.754605231787    0.000000000000
 O   -1.978817389494    0.319719231787    0.000000000000
 H   -1.059807389494    0.022918231787    0.000000000000
 H   -3.032136389494    2.062594231787    0.000000000000
 H   -1.490151389494    2.165538231787    0.899440000000
 H   -1.490151389494    2.165538231787   -0.899440000000
 K    1.604683348173   -0.837598536725    0.000000000000
