7

 C   -2.031047356605    1.771473281610    0.000000000000
 O   -2.031047356605    0.336587281610    0.000000000000
 H   -1.112037356605    0.039786281610    0.000000000000
 H   -3.084366356605    2.079462281610    0.000000000000
 H   -1.542381356605    2.182406281610    0.899440000000
 H   -1.542381356605    2.182406281610   -0.899440000000
 K    1.647613764549   -0.851463228634    0.000000000000
