7

 C   -2.083277323717    1.788341331434    0.000000000000
 O   -2.083277323717    0.353455331434    0.000000000000
 H   -1.164267323717    0.056654331434    0.000000000000
 H   -3.136596323717    2.096330331434    0.000000000000
 H   -1.594611323717    2.199274331434    0.899440000000
 H   -1.594611323717    2.199274331434   -0.899440000000
 K    1.690544180926   -0.865327920543    0.000000000000
