7

 C   -2.135507290829    1.805209381258    0.000000000000
 O   -2.135507290829    0.370323381258    0.000000000000
 H   -1.216497290829    0.073522381258    0.000000000000
 H   -3.188826290829    2.113198381258    0.000000000000
 H   -1.646841290829    2.216142381258    0.899440000000
 H   -1.646841290829    2.216142381258   -0.899440000000
 K    1.733474597302   -0.879192612451    0.000000000000
