7

 C   -2.187737257940    1.822077431082    0.000000000000
 O   -2.187737257940    0.387191431082    0.000000000000
 H   -1.268727257940    0.090390431082    0.000000000000
 H   -3.241056257940    2.130066431082    0.000000000000
 H   -1.699071257940    2.233010431082    0.899440000000
 H   -1.699071257940    2.233010431082   -0.899440000000
 K    1.776405013678   -0.893057304360    0.000000000000
