7

 C   -2.448887093499    1.906417680202    0.000000000000
 O   -2.448887093499    0.471531680202    0.000000000000
 H   -1.529877093499    0.174730680202    0.000000000000
 H   -3.502206093499    2.214406680202    0.000000000000
 H   -1.960221093499    2.317350680202    0.899440000000
 H   -1.960221093499    2.317350680202   -0.899440000000
 K    1.991057095560   -0.962380763903    0.000000000000
