7

 C   -2.501117060611    1.923285730026    0.000000000000
 O   -2.501117060611    0.488399730026    0.000000000000
 H   -1.582107060611    0.191598730026    0.000000000000
 H   -3.554436060611    2.231274730026    0.000000000000
 H   -2.012451060611    2.334218730026    0.899440000000
 H   -2.012451060611    2.334218730026   -0.899440000000
 K    2.033987511936   -0.976245455811    0.000000000000
