7

 C   -2.657806961946    1.973889879498    0.000000000000
 O   -2.657806961946    0.539003879498    0.000000000000
 H   -1.738796961946    0.242202879498    0.000000000000
 H   -3.711125961946    2.281878879498    0.000000000000
 H   -2.169140961946    2.384822879498    0.899440000000
 H   -2.169140961946    2.384822879498   -0.899440000000
 K    2.162778761065   -1.017839531537    0.000000000000
