7

 C   -2.710036929058    1.990757929322    0.000000000000
 O   -2.710036929058    0.555871929322    0.000000000000
 H   -1.791026929058    0.259070929322    0.000000000000
 H   -3.763355929058    2.298746929322    0.000000000000
 H   -2.221370929058    2.401690929322    0.899440000000
 H   -2.221370929058    2.401690929322   -0.899440000000
 K    2.205709177442   -1.031704223446    0.000000000000
