7

 C   -2.918956797505    2.058230128618    0.000000000000
 O   -2.918956797505    0.623344128618    0.000000000000
 H   -1.999946797505    0.326543128618    0.000000000000
 H   -3.972275797505    2.366219128618    0.000000000000
 H   -2.430290797505    2.469163128618    0.899440000000
 H   -2.430290797505    2.469163128618   -0.899440000000
 K    2.377430842947   -1.087162991080    0.000000000000
