7

 C   -2.971186764616    2.075098178442    0.000000000000
 O   -2.971186764616    0.640212178442    0.000000000000
 H   -2.052176764616    0.343411178442    0.000000000000
 H   -4.024505764616    2.383087178442    0.000000000000
 H   -2.482520764616    2.486031178442    0.899440000000
 H   -2.482520764616    2.486031178442   -0.899440000000
 K    2.420361259323   -1.101027682989    0.000000000000
