7

 C   -3.023416731728    2.091966228266    0.000000000000
 O   -3.023416731728    0.657080228266    0.000000000000
 H   -2.104406731728    0.360279228266    0.000000000000
 H   -4.076735731728    2.399955228266    0.000000000000
 H   -2.534750731728    2.502899228266    0.899440000000
 H   -2.534750731728    2.502899228266   -0.899440000000
 K    2.463291675700   -1.114892374897    0.000000000000
