7

 C   -3.284566567287    2.176306477386    0.000000000000
 O   -3.284566567287    0.741420477386    0.000000000000
 H   -2.365556567287    0.444619477386    0.000000000000
 H   -4.337885567287    2.484295477386    0.000000000000
 H   -2.795900567287    2.587239477386    0.899440000000
 H   -2.795900567287    2.587239477386   -0.899440000000
 K    2.677943757582   -1.184215834440    0.000000000000
