7

 C   -3.336796534399    2.193174527210    0.000000000000
 O   -3.336796534399    0.758288527210    0.000000000000
 H   -2.417786534399    0.461487527210    0.000000000000
 H   -4.390115534399    2.501163527210    0.000000000000
 H   -2.848130534399    2.604107527210    0.899440000000
 H   -2.848130534399    2.604107527210   -0.899440000000
 K    2.720874173958   -1.198080526349    0.000000000000
