7

 C   -3.545716402846    2.260646726506    0.000000000000
 O   -3.545716402846    0.825760726506    0.000000000000
 H   -2.626706402846    0.528959726506    0.000000000000
 H   -4.599035402846    2.568635726506    0.000000000000
 H   -3.057050402846    2.671579726506    0.899440000000
 H   -3.057050402846    2.671579726506   -0.899440000000
 K    2.892595839463   -1.253539293983    0.000000000000
