7

 C   -4.172476008186    2.463063324393    0.000000000000
 O   -4.172476008186    1.028177324393    0.000000000000
 H   -3.253466008186    0.731376324393    0.000000000000
 H   -5.225795008186    2.771052324393    0.000000000000
 H   -3.683810008186    2.873996324393    0.899440000000
 H   -3.683810008186    2.873996324393   -0.899440000000
 K    3.407760835980   -1.419915596886    0.000000000000
