17

 N   -2.213430581054   -3.040783381436   -0.002592656832
 C   -1.003242514210   -2.385577177760    0.001368967136
 N    0.230169900093   -2.984254872222    0.013407252041
 C    1.200593100149   -2.094078730611    0.001534795068
 N    0.997516262736   -0.732440597097   -0.005300365274
 H    1.801343387987   -0.112480057342   -0.087288387696
 N    2.526047854386   -2.512753452291   -0.076812508167
 H    3.180584059718   -1.980950227891    0.490828268563
 H    2.604852941777   -3.513453596226    0.084770829822
 C   -0.261757479581   -0.046406893566    0.007653421403
 O   -0.289337848686    1.181766191211    0.003565292975
 C   -1.334542605557   -1.020100282840    0.013854619343
 N   -2.705615907326   -0.833769237527    0.013779434627
 C   -3.199139401837   -2.072372251572    0.003449334962
 H   -4.256637315105   -2.326518873404    0.000502690536
 H   -2.338527577585   -4.047366466668   -0.011252207863
CS    0.565240791420    1.701072242049   -0.000505755874
