17

 N   -2.253429248340   -3.065089570442   -0.002402110848
 C   -1.043241181496   -2.409883366766    0.001559513120
 N    0.190171232807   -3.008561061228    0.013597798025
 C    1.160594432863   -2.118384919617    0.001725341052
 N    0.957517595450   -0.756746786103   -0.005109819290
 H    1.761344720701   -0.136786246348   -0.087097841712
 N    2.486049187100   -2.537059641297   -0.076621962183
 H    3.140585392432   -2.005256416897    0.491018814547
 H    2.564854274491   -3.537759785232    0.084961375806
 C   -0.301756146867   -0.070713082572    0.007843967387
 O   -0.329336515972    1.157460002205    0.003755838959
 C   -1.374541272843   -1.044406471846    0.014045165327
 N   -2.745614574612   -0.858075426533    0.013969980611
 C   -3.239138069123   -2.096678440578    0.003639880946
 H   -4.296635982391   -2.350825062410    0.000693236520
 H   -2.378526244871   -4.071672655674   -0.011061661879
CS    0.610699988144    1.728696658126   -0.000722314775
