17

 N   -2.453422584770   -3.186620515473   -0.001449380925
 C   -1.243234517926   -2.531414311797    0.002512243043
 N   -0.009822103623   -3.130092006259    0.014550527948
 C    0.960601096433   -2.239915864648    0.002678070975
 N    0.757524259020   -0.878277731134   -0.004157089367
 H    1.561351384271   -0.258317191379   -0.086145111789
 N    2.286055850670   -2.658590586328   -0.075669232260
 H    2.940592056002   -2.126787361928    0.491971544470
 H    2.364860938061   -3.659290730263    0.085914105729
 C   -0.501749483297   -0.192244027603    0.008796697310
 O   -0.529329852402    1.035929057174    0.004708568882
 C   -1.574534609273   -1.165937416877    0.014997895250
 N   -2.945607911042   -0.979606371564    0.014922710534
 C   -3.439131405553   -2.218209385609    0.004592610869
 H   -4.496629318821   -2.472356007441    0.001645966443
 H   -2.578519581301   -4.193203600705   -0.010108931956
CS    0.837995971767    1.866818738514   -0.001805109276
