17

 N   -2.653415921201   -3.308151460504   -0.000496651002
 C   -1.443227854357   -2.652945256828    0.003464972966
 N   -0.209815440054   -3.251622951290    0.015503257871
 C    0.760607760002   -2.361446809679    0.003630800898
 N    0.557530922589   -0.999808676165   -0.003204359444
 H    1.361358047840   -0.379848136410   -0.085192381866
 N    2.086062514239   -2.780121531359   -0.074716502337
 H    2.740598719571   -2.248318306959    0.492924274393
 H    2.164867601630   -3.780821675294    0.086866835652
 C   -0.701742819728   -0.313774972634    0.009749427233
 O   -0.729323188833    0.914398112143    0.005661298805
 C   -1.774527945704   -1.287468361908    0.015950625173
 N   -3.145601247473   -1.101137316595    0.015875440457
 C   -3.639124741984   -2.339740330640    0.005545340792
 H   -4.696622655252   -2.593886952472    0.002598696366
 H   -2.778512917732   -4.314734545736   -0.009156202033
CS    1.065291955389    2.004940818901   -0.002887903777
