17

 N   -2.893407924917   -3.453988594541    0.000646624906
 C   -1.683219858073   -2.798782390865    0.004608248874
 N   -0.449807443770   -3.397460085327    0.016646533779
 C    0.520615756286   -2.507283943716    0.004774076806
 N    0.317538918873   -1.145645810202   -0.002061083536
 H    1.121366044124   -0.525685270447   -0.084049105958
 N    1.846070510523   -2.925958665396   -0.073573226429
 H    2.500606715855   -2.394155440996    0.494067550301
 H    1.924875597914   -3.926658809331    0.088010111560
 C   -0.941734823444   -0.459612106671    0.010892703141
 O   -0.969315192549    0.768560978106    0.006804574713
 C   -2.014519949420   -1.433305495945    0.017093901081
 N   -3.385593251189   -1.246974450632    0.017018716365
 C   -3.879116745700   -2.485577464677    0.006688616700
 H   -4.936614658968   -2.739724086509    0.003741972274
 H   -3.018504921448   -4.460571679773   -0.008012926125
CS    1.338047135737    2.170687315367   -0.004187257179
