17

 N   -2.973405259489   -3.502600972554    0.001027716875
 C   -1.763217192645   -2.847394768878    0.004989340843
 N   -0.529804778342   -3.446072463340    0.017027625748
 C    0.440618421714   -2.555896321729    0.005155168775
 N    0.237541584301   -1.194258188215   -0.001679991567
 H    1.041368709552   -0.574297648460   -0.083668013989
 N    1.766073175951   -2.974571043409   -0.073192134460
 H    2.420609381283   -2.442767819009    0.494448642270
 H    1.844878263342   -3.975271187344    0.088391203529
 C   -1.021732158016   -0.508224484684    0.011273795110
 O   -1.049312527121    0.719948600093    0.007185666682
 C   -2.094517283992   -1.481917873958    0.017474993050
 N   -3.465590585761   -1.295586828645    0.017399808334
 C   -3.959114080272   -2.534189842690    0.007069708669
 H   -5.016611993540   -2.788336464522    0.004123064243
 H   -3.098502256020   -4.509184057786   -0.007631834156
CS    1.428965529186    2.225936147522   -0.004620374979
