17

 N   -3.053402594061   -3.551213350566    0.001408808844
 C   -1.843214527217   -2.896007146890    0.005370432812
 N   -0.609802112914   -3.494684841352    0.017408717717
 C    0.360621087142   -2.604508699741    0.005536260744
 N    0.157544249729   -1.242870566227   -0.001298899598
 H    0.961371374980   -0.622910026472   -0.083286922020
 N    1.686075841379   -3.023183421421   -0.072811042491
 H    2.340612046711   -2.491380197021    0.494829734239
 H    1.764880928770   -4.023883565356    0.088772295498
 C   -1.101729492588   -0.556836862696    0.011654887079
 O   -1.129309861693    0.671336222081    0.007566758651
 C   -2.174514618564   -1.530530251970    0.017856085019
 N   -3.545587920333   -1.344199206657    0.017780900303
 C   -4.039111414844   -2.582802220702    0.007450800638
 H   -5.096609328112   -2.836948842534    0.004504156212
 H   -3.178499590592   -4.557796435798   -0.007250742187
CS    1.519883922635    2.281184979677   -0.005053492780
