17

 N   -3.173398595919   -3.624131917585    0.001980446798
 C   -1.963210529075   -2.968925713909    0.005942070766
 N   -0.729798114772   -3.567603408371    0.017980355671
 C    0.240625085284   -2.677427266760    0.006107898698
 N    0.037548247871   -1.315789133246   -0.000727261644
 H    0.841375373122   -0.695828593491   -0.082715284066
 N    1.566079839521   -3.096101988440   -0.072239404537
 H    2.220616044853   -2.564298764040    0.495401372193
 H    1.644884926912   -4.096802132375    0.089343933452
 C   -1.221725494446   -0.629755429715    0.012226525033
 O   -1.249305863551    0.598417655062    0.008138396605
 C   -2.294510620422   -1.603448818989    0.018427722973
 N   -3.665583922191   -1.417117773676    0.018352538257
 C   -4.159107416702   -2.655720787721    0.008022438592
 H   -5.216605329970   -2.909867409553    0.005075794166
 H   -3.298495592450   -4.630715002817   -0.006679104233
CS    1.656261512808    2.364058227909   -0.005703169481
