17

 N   -3.213397263205   -3.648438106591    0.002170992783
 C   -2.003209196361   -2.993231902915    0.006132616751
 N   -0.769796782058   -3.591909597377    0.018170901656
 C    0.200626417998   -2.701733455766    0.006298444683
 N   -0.002450419415   -1.340095322252   -0.000536715659
 H    0.801376705836   -0.720134782497   -0.082524738081
 N    1.526081172235   -3.120408177446   -0.072048858552
 H    2.180617377567   -2.588604953046    0.495591918178
 H    1.604886259626   -4.121108321381    0.089534479437
 C   -1.261724161732   -0.654061618721    0.012417071018
 O   -1.289304530837    0.574111466056    0.008328942590
 C   -2.334509287708   -1.627755007995    0.018618268958
 N   -3.705582589477   -1.441423962682    0.018543084242
 C   -4.199106083988   -2.680026976727    0.008212984577
 H   -5.256603997256   -2.934173598559    0.005266340151
 H   -3.338494259736   -4.655021191823   -0.006488558248
CS    1.701720709533    2.391682643987   -0.005919728381
