17

 N   -3.333393265063   -3.721356673609    0.002742630737
 C   -2.123205198219   -3.066150469933    0.006704254705
 N   -0.889792783916   -3.664828164395    0.018742539610
 C    0.080630416140   -2.774652022784    0.006870082637
 N   -0.122446421273   -1.413013889270    0.000034922295
 H    0.681380703978   -0.793053349515   -0.081953100127
 N    1.406085170377   -3.193326744464   -0.071477220598
 H    2.060621375709   -2.661523520064    0.496163556132
 H    1.484890257768   -4.194026888399    0.090106117391
 C   -1.381720163590   -0.726980185739    0.012988708972
 O   -1.409300532695    0.501192899038    0.008900580544
 C   -2.454505289566   -1.700673575013    0.019189906912
 N   -3.825578591335   -1.514342529700    0.019114722196
 C   -4.319102085846   -2.752945543745    0.008784622531
 H   -5.376599999114   -3.007092165577    0.005837978105
 H   -3.458490261594   -4.727939758841   -0.005916920294
CS    1.838098299706    2.474555892220   -0.006569405082
