17

 N   -3.413390599636   -3.769969051622    0.003123722706
 C   -2.203202532792   -3.114762847946    0.007085346674
 N   -0.969790118489   -3.713440542408    0.019123631579
 C    0.000633081567   -2.823264400797    0.007251174606
 N   -0.202443755846   -1.461626267283    0.000416014264
 H    0.601383369405   -0.841665727528   -0.081572008158
 N    1.326087835804   -3.241939122477   -0.071096128629
 H    1.980624041136   -2.710135898077    0.496544648101
 H    1.404892923195   -4.242639266412    0.090487209360
 C   -1.461717498163   -0.775592563752    0.013369800941
 O   -1.489297867268    0.452580521025    0.009281672513
 C   -2.534502624139   -1.749285953026    0.019570998881
 N   -3.905575925908   -1.562954907713    0.019495814165
 C   -4.399099420419   -2.801557921758    0.009165714500
 H   -5.456597333687   -3.055704543590    0.006219070074
 H   -3.538487596167   -4.776552136854   -0.005535828325
CS    1.929016693156    2.529804724375   -0.007002522882
