17

 N   -3.573385268780   -3.867193807646    0.003885906644
 C   -2.363197201936   -3.211987603970    0.007847530612
 N   -1.129784787633   -3.810665298432    0.019885815517
 C   -0.159361587577   -2.920489156821    0.008013358544
 N   -0.362438424990   -1.558851023307    0.001178198202
 H    0.441388700261   -0.938890483552   -0.080809824220
 N    1.166093166660   -3.339163878501   -0.070333944691
 H    1.820629371992   -2.807360654101    0.497306832039
 H    1.244898254051   -4.339864022436    0.091249393298
 C   -1.621712167307   -0.872817319776    0.014131984879
 O   -1.649292536412    0.355355765001    0.010043856451
 C   -2.694497293283   -1.846510709050    0.020333182819
 N   -4.065570595052   -1.660179663737    0.020257998103
 C   -4.559094089563   -2.898782677782    0.009927898438
 H   -5.616592002831   -3.152929299614    0.006981254012
 H   -3.698482265311   -4.873776892878   -0.004773644387
CS    2.110853480054    2.640302388685   -0.007868758483
