17

 N   -3.773378605210   -3.988724752677    0.004838636568
 C   -2.563190538366   -3.333518549001    0.008800260536
 N   -1.329778124063   -3.932196243463    0.020838545441
 C   -0.359354924007   -3.042020101852    0.008966088468
 N   -0.562431761420   -1.680381968338    0.002130928126
 H    0.241395363831   -1.060421428583   -0.079857094296
 N    0.966099830230   -3.460694823532   -0.069381214767
 H    1.620636035562   -2.928891599132    0.498259561963
 H    1.044904917621   -4.461394967467    0.092202123222
 C   -1.821705503737   -0.994348264807    0.015084714803
 O   -1.849285872842    0.233824819970    0.010996586375
 C   -2.894490629713   -1.968041654081    0.021285912743
 N   -4.265563931482   -1.781710608768    0.021210728027
 C   -4.759087425993   -3.020313622813    0.010880628362
 H   -5.816585339261   -3.274460244645    0.007933983936
 H   -3.898475601741   -4.995307837909   -0.003820914463
CS    2.338149463676    2.778424469072   -0.008951552985
