17

 N   -3.813377272496   -4.013030941684    0.005029182552
 C   -2.603189205652   -3.357824738008    0.008990806520
 N   -1.369776791349   -3.956502432470    0.021029091425
 C   -0.399353591293   -3.066326290859    0.009156634452
 N   -0.602430428706   -1.704688157345    0.002321474110
 H    0.201396696545   -1.084727617590   -0.079666548312
 N    0.926101162944   -3.485001012539   -0.069190668783
 H    1.580637368276   -2.953197788139    0.498450107947
 H    1.004906250335   -4.485701156474    0.092392669206
 C   -1.861704171023   -1.018654453814    0.015275260787
 O   -1.889284540128    0.209518630963    0.011187132359
 C   -2.934489296999   -1.992347843088    0.021476458727
 N   -4.305562598768   -1.806016797775    0.021401274011
 C   -4.799086093279   -3.044619811820    0.011071174346
 H   -5.856584006547   -3.298766433652    0.008124529920
 H   -3.938474269027   -5.019614026916   -0.003630368479
CS    2.383608660401    2.806048885150   -0.009168111885
