17

 N   -3.893374607068   -4.061643319696    0.005410274521
 C   -2.683186540224   -3.406437116020    0.009371898489
 N   -1.449774125921   -4.005114810482    0.021410183394
 C   -0.479350925865   -3.114938668871    0.009537726421
 N   -0.682427763278   -1.753300535357    0.002702566079
 H    0.121399361973   -1.133339995602   -0.079285456343
 N    0.846103828372   -3.533613390551   -0.068809576814
 H    1.500640033704   -3.001810166151    0.498831199916
 H    0.924908915763   -4.534313534486    0.092773761175
 C   -1.941701505595   -1.067266831826    0.015656352756
 O   -1.969281874700    0.160906252951    0.011568224328
 C   -3.014486631571   -2.040960221100    0.021857550696
 N   -4.385559933340   -1.854629175787    0.021782365980
 C   -4.879083427851   -3.093232189832    0.011452266315
 H   -5.936581341119   -3.347378811664    0.008505621889
 H   -4.018471603599   -5.068226404928   -0.003249276510
CS    2.474527053850    2.861297717305   -0.009601229686
