17

 N   -3.933373274354   -4.085949508702    0.005600820506
 C   -2.723185207510   -3.430743305026    0.009562444474
 N   -1.489772793207   -4.029420999488    0.021600729379
 C   -0.519349593151   -3.139244857877    0.009728272406
 N   -0.722426430564   -1.777606724363    0.002893112064
 H    0.081400694687   -1.157646184608   -0.079094910358
 N    0.806105161086   -3.557919579557   -0.068619030829
 H    1.460641366418   -3.026116355157    0.499021745901
 H    0.884910248477   -4.558619723492    0.092964307160
 C   -1.981700172881   -1.091573020832    0.015846898741
 O   -2.009280541986    0.136600063945    0.011758770313
 C   -3.054485298857   -2.065266410106    0.022048096681
 N   -4.425558600626   -1.878935364793    0.021972911965
 C   -4.919082095137   -3.117538378838    0.011642812300
 H   -5.976580008405   -3.371685000670    0.008696167874
 H   -4.058470270885   -5.092532593934   -0.003058730525
CS    2.519986250574    2.888922133383   -0.009817788586
