17

 N   -4.093367943498   -4.183174264727    0.006363004444
 C   -2.883179876654   -3.527968061051    0.010324628412
 N   -1.649767462351   -4.126645755513    0.022362913317
 C   -0.679344262295   -3.236469613902    0.010490456344
 N   -0.882421099708   -1.874831480388    0.003655296002
 H   -0.078593974457   -1.254870940633   -0.078332726420
 N    0.646110491942   -3.655144335582   -0.067856846891
 H    1.300646697274   -3.123341111182    0.499783929839
 H    0.724915579333   -4.655844479517    0.093726491098
 C   -2.141694842025   -1.188797776857    0.016609082679
 O   -2.169275211130    0.039375307920    0.012520954251
 C   -3.214479968001   -2.162491166131    0.022810280619
 N   -4.585553269770   -1.976160120818    0.022735095903
 C   -5.079076764281   -3.214763134863    0.012404996238
 H   -6.136574677549   -3.468909756695    0.009458351812
 H   -4.218464940029   -5.189757349959   -0.002296546587
CS    2.701823037473    2.999419797693   -0.010684024187
