17

 N   -4.293361279928   -4.304705209758    0.007315734368
 C   -3.083173213084   -3.649499006082    0.011277358336
 N   -1.849760798781   -4.248176700544    0.023315643241
 C   -0.879337598725   -3.358000558933    0.011443186268
 N   -1.082414436138   -1.996362425419    0.004608025926
 H   -0.278587310887   -1.376401885664   -0.077379996496
 N    0.446117155512   -3.776675280613   -0.066904116967
 H    1.100653360844   -3.244872056213    0.500736659763
 H    0.524922242903   -4.777375424548    0.094679221022
 C   -2.341688178455   -1.310328721888    0.017561812603
 O   -2.369268547560   -0.082155637111    0.013473684175
 C   -3.414473304431   -2.284022111162    0.023763010543
 N   -4.785546606200   -2.097691065849    0.023687825827
 C   -5.279070100711   -3.336294079894    0.013357726162
 H   -6.336568013979   -3.590440701726    0.010411081736
 H   -4.418458276459   -5.311288294990   -0.001343816663
CS    2.929119021095    3.137541878080   -0.011766818688
