17

 N   -4.493354616359   -4.426236154789    0.008268464291
 C   -3.283166549515   -3.771029951113    0.012230088259
 N   -2.049754135212   -4.369707645575    0.024268373164
 C   -1.079330935156   -3.479531503964    0.012395916191
 N   -1.282407772569   -2.117893370450    0.005560755849
 H   -0.478580647318   -1.497932830695   -0.076427266573
 N    0.246123819081   -3.898206225644   -0.065951387044
 H    0.900660024413   -3.366403001244    0.501689389686
 H    0.324928906472   -4.898906369579    0.095631950945
 C   -2.541681514886   -1.431859666919    0.018514542526
 O   -2.569261883991   -0.203686582142    0.014426414098
 C   -3.614466640862   -2.405553056193    0.024715740466
 N   -4.985539942631   -2.219222010880    0.024640555750
 C   -5.479063437142   -3.457825024925    0.014310456085
 H   -6.536561350410   -3.711971646757    0.011363811659
 H   -4.618451612890   -5.432819240021   -0.000391086740
CS    3.156415004718    3.275663958468   -0.012849613190
