17

 N   -4.693347952789   -4.547767099820    0.009221194214
 C   -3.483159885945   -3.892560896144    0.013182818182
 N   -2.249747471642   -4.491238590606    0.025221103087
 C   -1.279324271586   -3.601062448995    0.013348646114
 N   -1.482401108999   -2.239424315481    0.006513485772
 H   -0.678573983748   -1.619463775726   -0.075474536650
 N    0.046130482651   -4.019737170675   -0.064998657121
 H    0.700666687983   -3.487933946275    0.502642119609
 H    0.124935570042   -5.020437314610    0.096584680868
 C   -2.741674851316   -1.553390611950    0.019467272449
 O   -2.769255220421   -0.325217527173    0.015379144021
 C   -3.814459977292   -2.527084001224    0.025668470389
 N   -5.185533279061   -2.340752955911    0.025593285673
 C   -5.679056773572   -3.579355969956    0.015263186008
 H   -6.736554686840   -3.833502591788    0.012316541582
 H   -4.818444949320   -5.554350185052    0.000561643183
CS    3.383710988341    3.413786038856   -0.013932407691
