17

 N   -4.773345287361   -4.596379477832    0.009602286183
 C   -3.563157220517   -3.941173274156    0.013563910151
 N   -2.329744806214   -4.539850968618    0.025602195056
 C   -1.359321606158   -3.649674827007    0.013729738083
 N   -1.562398443571   -2.288036693493    0.006894577741
 H   -0.758571318320   -1.668076153738   -0.075093444681
 N   -0.033866851921   -4.068349548687   -0.064617565152
 H    0.620669353411   -3.536546324287    0.503023211578
 H    0.044938235470   -5.069049692622    0.096965772837
 C   -2.821672185888   -1.602002989962    0.019848364418
 O   -2.849252554993   -0.373829905185    0.015760235990
 C   -3.894457311864   -2.575696379236    0.026049562358
 N   -5.265530613633   -2.389365333923    0.025974377642
 C   -5.759054108144   -3.627968347968    0.015644277977
 H   -6.816552021412   -3.882114969800    0.012697633551
 H   -4.898442283892   -5.602962563064    0.000942735152
CS    3.474629381790    3.469034871011   -0.014365525491
