17

 N   -4.933339956505   -4.693604233857    0.010364470121
 C   -3.723151889661   -4.038398030181    0.014326094089
 N   -2.489739475358   -4.637075724643    0.026364378994
 C   -1.519316275302   -3.746899583032    0.014491922021
 N   -1.722393112715   -2.385261449518    0.007656761679
 H   -0.918565987464   -1.765300909763   -0.074331260743
 N   -0.193861521065   -4.165574304712   -0.063855381214
 H    0.460674684267   -3.633771080312    0.503785395516
 H   -0.115056433674   -5.166274448647    0.097727956775
 C   -2.981666855032   -1.699227745987    0.020610548356
 O   -3.009247224137   -0.471054661210    0.016522419928
 C   -4.054451981008   -2.672921135261    0.026811746296
 N   -5.425525282777   -2.486590089948    0.026736561580
 C   -5.919048777288   -3.725193103993    0.016406461915
 H   -6.976546690556   -3.979339725825    0.013459817489
 H   -5.058436953036   -5.700187319089    0.001704919090
CS    3.656466168688    3.579532535321   -0.015231761093
