17

 N   -4.973338623791   -4.717910422863    0.010555016106
 C   -3.763150556947   -4.062704219187    0.014516640074
 N   -2.529738142644   -4.661381913649    0.026554924979
 C   -1.559314942588   -3.771205772038    0.014682468006
 N   -1.762391780001   -2.409567638524    0.007847307664
 H   -0.958564654750   -1.789607098769   -0.074140714758
 N   -0.233860188351   -4.189880493718   -0.063664835229
 H    0.420676016981   -3.658077269318    0.503975941501
 H   -0.155055100960   -5.190580637653    0.097918502760
 C   -3.021665522318   -1.723533934993    0.020801094341
 O   -3.049245891423   -0.495360850216    0.016712965913
 C   -4.094450648294   -2.697227324267    0.027002292281
 N   -5.465523950063   -2.510896278954    0.026927107565
 C   -5.959047444574   -3.749499292999    0.016597007900
 H   -7.016545357842   -4.003645914831    0.013650363474
 H   -5.098435620322   -5.724493508095    0.001895465075
CS    3.701925365412    3.607156951398   -0.015448319993
