17

 N   -5.173331960221   -4.839441367894    0.011507746029
 C   -3.963143893377   -4.184235164218    0.015469369997
 N   -2.729731479074   -4.782912858680    0.027507654902
 C   -1.759308279018   -3.892736717069    0.015635197929
 N   -1.962385116431   -2.531098583555    0.008800037587
 H   -1.158557991180   -1.911138043800   -0.073187984835
 N   -0.433853524781   -4.311411438749   -0.062712105306
 H    0.220682680551   -3.779608214349    0.504928671424
 H   -0.355048437390   -5.312111582684    0.098871232683
 C   -3.221658858748   -1.845064880024    0.021753824264
 O   -3.249239227853   -0.616891795247    0.017665695836
 C   -4.294443984724   -2.818758269298    0.027955022204
 N   -5.665517286493   -2.632427223985    0.027879837488
 C   -6.159040781004   -3.871030238030    0.017549737823
 H   -7.216538694272   -4.125176859862    0.014603093397
 H   -5.298428956752   -5.846024453126    0.002848194998
CS    3.929221349035    3.745279031786   -0.016531114494
