17

 N   -5.213330627507   -4.863747556901    0.011698292014
 C   -4.003142560663   -4.208541353225    0.015659915982
 N   -2.769730146360   -4.807219047687    0.027698200887
 C   -1.799306946304   -3.917042906076    0.015825743914
 N   -2.002383783717   -2.555404772562    0.008990583572
 H   -1.198556658466   -1.935444232807   -0.072997438850
 N   -0.473852192067   -4.335717627756   -0.062521559321
 H    0.180684013265   -3.803914403356    0.505119217409
 H   -0.395047104676   -5.336417771691    0.099061778668
 C   -3.261657526034   -1.869371069031    0.021944370249
 O   -3.289237895139   -0.641197984254    0.017856241821
 C   -4.334442652010   -2.843064458305    0.028145568189
 N   -5.705515953779   -2.656733412992    0.028070383473
 C   -6.199039448290   -3.895336427037    0.017740283808
 H   -7.256537361558   -4.149483048869    0.014793639382
 H   -5.338427624038   -5.870330642133    0.003038740983
CS    3.974680545760    3.772903447864   -0.016747673394
