17

 N   -5.333326629366   -4.936666123919    0.012269929968
 C   -4.123138562522   -4.281459920243    0.016231553936
 N   -2.889726148219   -4.880137614705    0.028269838841
 C   -1.919302948163   -3.989961473094    0.016397381868
 N   -2.122379785576   -2.628323339580    0.009562221526
 H   -1.318552660325   -2.008362799825   -0.072425800896
 N   -0.593848193926   -4.408636194774   -0.061949921367
 H    0.060688011406   -3.876832970374    0.505690855363
 H   -0.515043106535   -5.409336338709    0.099633416622
 C   -3.381653527893   -1.942289636049    0.022516008203
 O   -3.409233896998   -0.714116551272    0.018427879775
 C   -4.454438653869   -2.915983025323    0.028717206143
 N   -5.825511955638   -2.729651980010    0.028642021427
 C   -6.319035450149   -3.968254994055    0.018311921762
 H   -7.376533363417   -4.222401615887    0.015365277336
 H   -5.458423625897   -5.943249209151    0.003610378937
CS    4.111058135933    3.855776696096   -0.017397350095
