17

 N   -5.373325296652   -4.960972312925    0.012460475952
 C   -4.163137229808   -4.305766109249    0.016422099920
 N   -2.929724815505   -4.904443803711    0.028460384825
 C   -1.959301615449   -4.014267662100    0.016587927852
 N   -2.162378452862   -2.652629528586    0.009752767510
 H   -1.358551327611   -2.032668988831   -0.072235254912
 N   -0.633846861212   -4.432942383780   -0.061759375383
 H    0.020689344120   -3.901139159380    0.505881401347
 H   -0.555041773821   -5.433642527715    0.099823962606
 C   -3.421652195179   -1.966595825055    0.022706554187
 O   -3.449232564284   -0.738422740278    0.018618425759
 C   -4.494437321155   -2.940289214329    0.028907752127
 N   -5.865510622924   -2.753958169016    0.028832567411
 C   -6.359034117435   -3.992561183061    0.018502467746
 H   -7.416532030703   -4.246707804893    0.015555823320
 H   -5.498422293183   -5.967555398157    0.003800924921
CS    4.156517332658    3.883401112174   -0.017613908995
