17

 N   -5.533319965796   -5.058197068950    0.013222659891
 C   -4.323131898952   -4.402990865274    0.017184283859
 N   -3.089719484649   -5.001668559736    0.029222568764
 C   -2.119296284593   -4.111492418125    0.017350111791
 N   -2.322373122006   -2.749854284611    0.010514951449
 H   -1.518545996755   -2.129893744856   -0.071473070973
 N   -0.793841530356   -4.530167139805   -0.060997191444
 H   -0.139305325024   -3.998363915405    0.506643585286
 H   -0.715036442965   -5.530867283740    0.100586146545
 C   -3.581646864323   -2.063820581080    0.023468738126
 O   -3.609227233428   -0.835647496303    0.019380609698
 C   -4.654431990299   -3.037513970354    0.029669936066
 N   -6.025505292068   -2.851182925041    0.029594751350
 C   -6.519028786579   -4.089785939086    0.019264651685
 H   -7.576526699847   -4.343932560918    0.016318007259
 H   -5.658416962327   -6.064780154182    0.004563108860
CS    4.338354119556    3.993898776484   -0.018480144597
