17

 N   -5.733313302226   -5.179728013981    0.014175389814
 C   -4.523125235382   -4.524521810305    0.018137013782
 N   -3.289712821079   -5.123199504767    0.030175298687
 C   -2.319289621023   -4.233023363156    0.018302841714
 N   -2.522366458436   -2.871385229642    0.011467681372
 H   -1.718539333185   -2.251424689887   -0.070520341050
 N   -0.993834866786   -4.651698084836   -0.060044461521
 H   -0.339298661454   -4.119894860436    0.507596315209
 H   -0.915029779395   -5.652398228771    0.101538876468
 C   -3.781640200753   -2.185351526111    0.024421468049
 O   -3.809220569858   -0.957178441334    0.020333339621
 C   -4.854425326729   -3.159044915385    0.030622665989
 N   -6.225498628498   -2.972713870072    0.030547481273
 C   -6.719022123009   -4.211316884117    0.020217381608
 H   -7.776520036277   -4.465463505949    0.017270737182
 H   -5.858410298757   -6.186311099213    0.005515838783
CS    4.565650103178    4.132020856872   -0.019562939098
