17

 N   -5.773311969512   -5.204034202987    0.014365935798
 C   -4.563123902668   -4.548827999311    0.018327559766
 N   -3.329711488365   -5.147505693773    0.030365844671
 C   -2.359288288309   -4.257329552162    0.018493387698
 N   -2.562365125722   -2.895691418648    0.011658227356
 H   -1.758538000471   -2.275730878893   -0.070329795066
 N   -1.033833534072   -4.676004273842   -0.059853915537
 H   -0.379297328740   -4.144201049442    0.507786861193
 H   -0.955028446681   -5.676704417777    0.101729422452
 C   -3.821638868039   -2.209657715117    0.024612014033
 O   -3.849219237144   -0.981484630340    0.020523885605
 C   -4.894423994015   -3.183351104391    0.030813211973
 N   -6.265497295784   -2.997020059078    0.030738027257
 C   -6.759020790295   -4.235623073123    0.020407927592
 H   -7.816518703563   -4.489769694955    0.017461283166
 H   -5.898408966043   -6.210617288219    0.005706384767
CS    4.611109299903    4.159645272949   -0.019779497998
