14

 C   -0.592998790421   -3.538474754365    0.000000000000
 H   -0.585276790421   -4.631649754365    0.000000000000
 C    0.617477209579   -2.818635754365    0.000000000000
 H    1.572496209579   -3.352334754365    0.000000000000
 C   -1.812822790421   -2.838468754365    0.000000000000
 H   -2.760954790421   -3.384280754365    0.000000000000
 C    0.615069209579   -1.413490754365    0.000000000000
 H    1.546423209579   -0.840951754365    0.000000000000
 C   -1.826673790421   -1.430987754365    0.000000000000
 H   -2.778672790421   -0.888266754365    0.000000000000
 C   -0.610396790421   -0.723205754365    0.000000000000
 O   -0.549849790421    0.657255245635    0.000000000000
 H   -1.452980790421    1.005682245635    0.000000000000
CS    0.425963012198    1.164984872745    0.000000000000
