14

 C   -0.696900230395   -3.592536188313    0.000000000000
 H   -0.689178230395   -4.685711188313    0.000000000000
 C    0.513575769605   -2.872697188313    0.000000000000
 H    1.468594769605   -3.406396188313    0.000000000000
 C   -1.916724230395   -2.892530188313    0.000000000000
 H   -2.864856230395   -3.438342188313    0.000000000000
 C    0.511167769605   -1.467552188313    0.000000000000
 H    1.442521769605   -0.895013188313    0.000000000000
 C   -1.930575230395   -1.485049188313    0.000000000000
 H   -2.882574230395   -0.942328188313    0.000000000000
 C   -0.714298230395   -0.777267188313    0.000000000000
 O   -0.653751230395    0.603193811687    0.000000000000
 H   -1.556882230395    0.951620811687    0.000000000000
CS    0.499482081791    1.203237916453    0.000000000000
