14

 C   -5.216612869286   -5.944208565053    0.000000000000
 H   -5.208890869286   -7.037383565053    0.000000000000
 C   -4.006136869286   -5.224369565053    0.000000000000
 H   -3.051117869286   -5.758068565053    0.000000000000
 C   -6.436436869286   -5.244202565053    0.000000000000
 H   -7.384568869286   -5.790014565053    0.000000000000
 C   -4.008544869286   -3.819224565053    0.000000000000
 H   -3.077190869286   -3.246685565053    0.000000000000
 C   -6.450287869286   -3.836721565053    0.000000000000
 H   -7.402286869286   -3.294000565053    0.000000000000
 C   -5.234010869286   -3.128939565053    0.000000000000
 O   -5.173463869286   -1.748478565053    0.000000000000
 H   -6.076594869286   -1.400051565053    0.000000000000
CS    3.697561609067    2.867245317765    0.000000000000
