14

 C   -1.060555270306   -3.781751207131    0.000000000000
 H   -1.052833270306   -4.874926207131    0.000000000000
 C    0.149920729694   -3.061912207131    0.000000000000
 H    1.104939729694   -3.595611207131    0.000000000000
 C   -2.280379270306   -3.081745207131    0.000000000000
 H   -3.228511270306   -3.627557207131    0.000000000000
 C    0.147512729694   -1.656767207131    0.000000000000
 H    1.078866729694   -1.084228207131    0.000000000000
 C   -2.294230270306   -1.674264207131    0.000000000000
 H   -3.246229270306   -1.131543207131    0.000000000000
 C   -1.077953270306   -0.966482207131    0.000000000000
 O   -1.017406270306    0.413978792869    0.000000000000
 H   -1.920537270306    0.762405792869    0.000000000000
CS    0.756798825365    1.337123569433    0.000000000000
