14

 C   -1.164456710281   -3.835812641079    0.000000000000
 H   -1.156734710281   -4.928987641079    0.000000000000
 C    0.046019289719   -3.115973641079    0.000000000000
 H    1.001038289719   -3.649672641079    0.000000000000
 C   -2.384280710281   -3.135806641079    0.000000000000
 H   -3.332412710281   -3.681618641079    0.000000000000
 C    0.043611289719   -1.710828641079    0.000000000000
 H    0.974965289719   -1.138289641079    0.000000000000
 C   -2.398131710281   -1.728325641079    0.000000000000
 H   -3.350130710281   -1.185604641079    0.000000000000
 C   -1.181854710281   -1.020543641079    0.000000000000
 O   -1.121307710281    0.359917358921    0.000000000000
 H   -2.024438710281    0.708344358921    0.000000000000
CS    0.830317894957    1.375376613141    0.000000000000
