14

 C   -1.268358150255   -3.889874075027    0.000000000000
 H   -1.260636150255   -4.983049075027    0.000000000000
 C   -0.057882150255   -3.170035075027    0.000000000000
 H    0.897136849745   -3.703734075027    0.000000000000
 C   -2.488182150255   -3.189868075027    0.000000000000
 H   -3.436314150255   -3.735680075027    0.000000000000
 C   -0.060290150255   -1.764890075027    0.000000000000
 H    0.871063849745   -1.192351075027    0.000000000000
 C   -2.502033150255   -1.782387075027    0.000000000000
 H   -3.454032150255   -1.239666075027    0.000000000000
 C   -1.285756150255   -1.074605075027    0.000000000000
 O   -1.225209150255    0.305855924973    0.000000000000
 H   -2.128340150255    0.654282924973    0.000000000000
CS    0.903836964550    1.413629656849    0.000000000000
