14

 C   -1.372259590230   -3.943935508975    0.000000000000
 H   -1.364537590230   -5.037110508975    0.000000000000
 C   -0.161783590230   -3.224096508975    0.000000000000
 H    0.793235409770   -3.757795508975    0.000000000000
 C   -2.592083590230   -3.243929508975    0.000000000000
 H   -3.540215590230   -3.789741508975    0.000000000000
 C   -0.164191590230   -1.818951508975    0.000000000000
 H    0.767162409770   -1.246412508975    0.000000000000
 C   -2.605934590230   -1.836448508975    0.000000000000
 H   -3.557933590230   -1.293727508975    0.000000000000
 C   -1.389657590230   -1.128666508975    0.000000000000
 O   -1.329110590230    0.251794491025    0.000000000000
 H   -2.232241590230    0.600221491025    0.000000000000
CS    0.977356034142    1.451882700557    0.000000000000
