14

 C   -1.424210310217   -3.970966225949    0.000000000000
 H   -1.416488310217   -5.064141225949    0.000000000000
 C   -0.213734310217   -3.251127225949    0.000000000000
 H    0.741284689783   -3.784826225949    0.000000000000
 C   -2.644034310217   -3.270960225949    0.000000000000
 H   -3.592166310217   -3.816772225949    0.000000000000
 C   -0.216142310217   -1.845982225949    0.000000000000
 H    0.715211689783   -1.273443225949    0.000000000000
 C   -2.657885310217   -1.863479225949    0.000000000000
 H   -3.609884310217   -1.320758225949    0.000000000000
 C   -1.441608310217   -1.155697225949    0.000000000000
 O   -1.381061310217    0.224763774051    0.000000000000
 H   -2.284192310217    0.573190774051    0.000000000000
CS    1.014115568938    1.471009222412    0.000000000000
