14

 C   -1.528111750191   -4.025027659897    0.000000000000
 H   -1.520389750191   -5.118202659897    0.000000000000
 C   -0.317635750191   -3.305188659897    0.000000000000
 H    0.637383249809   -3.838887659897    0.000000000000
 C   -2.747935750191   -3.325021659897    0.000000000000
 H   -3.696067750191   -3.870833659897    0.000000000000
 C   -0.320043750191   -1.900043659897    0.000000000000
 H    0.611310249809   -1.327504659897    0.000000000000
 C   -2.761786750191   -1.917540659897    0.000000000000
 H   -3.713785750191   -1.374819659897    0.000000000000
 C   -1.545509750191   -1.209758659897    0.000000000000
 O   -1.484962750191    0.170702340103    0.000000000000
 H   -2.388093750191    0.519129340103    0.000000000000
CS    1.087634638531    1.509262266120    0.000000000000
