14

 C   -1.683963910153   -4.106119810819    0.000000000000
 H   -1.676241910153   -5.199294810819    0.000000000000
 C   -0.473487910153   -3.386280810819    0.000000000000
 H    0.481531089847   -3.919979810819    0.000000000000
 C   -2.903787910153   -3.406113810819    0.000000000000
 H   -3.851919910153   -3.951925810819    0.000000000000
 C   -0.475895910153   -1.981135810819    0.000000000000
 H    0.455458089847   -1.408596810819    0.000000000000
 C   -2.917638910153   -1.998632810819    0.000000000000
 H   -3.869637910153   -1.455911810819    0.000000000000
 C   -1.701361910153   -1.290850810819    0.000000000000
 O   -1.640814910153    0.089610189181    0.000000000000
 H   -2.543945910153    0.438037189181    0.000000000000
CS    1.197913242920    1.566641831682    0.000000000000
