14

 C   -1.735914630140   -4.133150527793    0.000000000000
 H   -1.728192630140   -5.226325527793    0.000000000000
 C   -0.525438630140   -3.413311527793    0.000000000000
 H    0.429580369860   -3.947010527793    0.000000000000
 C   -2.955738630140   -3.433144527793    0.000000000000
 H   -3.903870630140   -3.978956527793    0.000000000000
 C   -0.527846630140   -2.008166527793    0.000000000000
 H    0.403507369860   -1.435627527793    0.000000000000
 C   -2.969589630140   -2.025663527793    0.000000000000
 H   -3.921588630140   -1.482942527793    0.000000000000
 C   -1.753312630140   -1.317881527793    0.000000000000
 O   -1.692765630140    0.062579472207    0.000000000000
 H   -2.595896630140    0.411006472207    0.000000000000
CS    1.234672777716    1.585768353537    0.000000000000
