14

 C   -1.787865350127   -4.160181244767    0.000000000000
 H   -1.780143350127   -5.253356244767    0.000000000000
 C   -0.577389350127   -3.440342244767    0.000000000000
 H    0.377629649873   -3.974041244767    0.000000000000
 C   -3.007689350127   -3.460175244767    0.000000000000
 H   -3.955821350127   -4.005987244767    0.000000000000
 C   -0.579797350127   -2.035197244767    0.000000000000
 H    0.351556649873   -1.462658244767    0.000000000000
 C   -3.021540350127   -2.052694244767    0.000000000000
 H   -3.973539350127   -1.509973244767    0.000000000000
 C   -1.805263350127   -1.344912244767    0.000000000000
 O   -1.744716350127    0.035548755233    0.000000000000
 H   -2.647847350127    0.383975755233    0.000000000000
CS    1.271432312512    1.604894875391    0.000000000000
