14

 C   -1.943717510089   -4.241273395689    0.000000000000
 H   -1.935995510089   -5.334448395689    0.000000000000
 C   -0.733241510089   -3.521434395689    0.000000000000
 H    0.221777489911   -4.055133395689    0.000000000000
 C   -3.163541510089   -3.541267395689    0.000000000000
 H   -4.111673510089   -4.087079395689    0.000000000000
 C   -0.735649510089   -2.116289395689    0.000000000000
 H    0.195704489911   -1.543750395689    0.000000000000
 C   -3.177392510089   -2.133786395689    0.000000000000
 H   -4.129391510089   -1.591065395689    0.000000000000
 C   -1.961115510089   -1.426004395689    0.000000000000
 O   -1.900568510089   -0.045543395689    0.000000000000
 H   -2.803699510089    0.302883604311    0.000000000000
CS    1.381710916901    1.662274440953    0.000000000000
