14

 C   -1.995668230076   -4.268304112664    0.000000000000
 H   -1.987946230076   -5.361479112664    0.000000000000
 C   -0.785192230076   -3.548465112664    0.000000000000
 H    0.169826769924   -4.082164112664    0.000000000000
 C   -3.215492230076   -3.568298112664    0.000000000000
 H   -4.163624230076   -4.114110112664    0.000000000000
 C   -0.787600230076   -2.143320112664    0.000000000000
 H    0.143753769924   -1.570781112664    0.000000000000
 C   -3.229343230076   -2.160817112664    0.000000000000
 H   -4.181342230076   -1.618096112664    0.000000000000
 C   -2.013066230076   -1.453035112664    0.000000000000
 O   -1.952519230076   -0.072574112664    0.000000000000
 H   -2.855650230076    0.275852887336    0.000000000000
CS    1.418470451698    1.681400962807    0.000000000000
