14

 C   -2.151520390038   -4.349396263586    0.000000000000
 H   -2.143798390038   -5.442571263586    0.000000000000
 C   -0.941044390038   -3.629557263586    0.000000000000
 H    0.013974609962   -4.163256263586    0.000000000000
 C   -3.371344390038   -3.649390263586    0.000000000000
 H   -4.319476390038   -4.195202263586    0.000000000000
 C   -0.943452390038   -2.224412263586    0.000000000000
 H   -0.012098390038   -1.651873263586    0.000000000000
 C   -3.385195390038   -2.241909263586    0.000000000000
 H   -4.337194390038   -1.699188263586    0.000000000000
 C   -2.168918390038   -1.534127263586    0.000000000000
 O   -2.108371390038   -0.153666263586    0.000000000000
 H   -3.011502390038    0.194760736414    0.000000000000
CS    1.528749056086    1.738780528370    0.000000000000
