14

 C   -2.307372550000   -4.430488414508    0.000000000000
 H   -2.299650550000   -5.523663414508    0.000000000000
 C   -1.096896550000   -3.710649414508    0.000000000000
 H   -0.141877550000   -4.244348414508    0.000000000000
 C   -3.527196550000   -3.730482414508    0.000000000000
 H   -4.475328550000   -4.276294414508    0.000000000000
 C   -1.099304550000   -2.305504414508    0.000000000000
 H   -0.167950550000   -1.732965414508    0.000000000000
 C   -3.541047550000   -2.323001414508    0.000000000000
 H   -4.493046550000   -1.780280414508    0.000000000000
 C   -2.324770550000   -1.615219414508    0.000000000000
 O   -2.264223550000   -0.234758414508    0.000000000000
 H   -3.167354550000    0.113668585492    0.000000000000
CS    1.639027660475    1.796160093932    0.000000000000
