14

 C   -2.515175429949   -4.538611282404    0.000000000000
 H   -2.507453429949   -5.631786282404    0.000000000000
 C   -1.304699429949   -3.818772282404    0.000000000000
 H   -0.349680429949   -4.352471282404    0.000000000000
 C   -3.734999429949   -3.838605282404    0.000000000000
 H   -4.683131429949   -4.384417282404    0.000000000000
 C   -1.307107429949   -2.413627282404    0.000000000000
 H   -0.375753429949   -1.841088282404    0.000000000000
 C   -3.748850429949   -2.431124282404    0.000000000000
 H   -4.700849429949   -1.888403282404    0.000000000000
 C   -2.532573429949   -1.723342282404    0.000000000000
 O   -2.472026429949   -0.342881282404    0.000000000000
 H   -3.375157429949    0.005545717596    0.000000000000
CS    1.786065799660    1.872666181349    0.000000000000
