14

 C   -2.619076869923   -4.592672716352    0.000000000000
 H   -2.611354869923   -5.685847716352    0.000000000000
 C   -1.408600869923   -3.872833716352    0.000000000000
 H   -0.453581869923   -4.406532716352    0.000000000000
 C   -3.838900869923   -3.892666716352    0.000000000000
 H   -4.787032869923   -4.438478716352    0.000000000000
 C   -1.411008869923   -2.467688716352    0.000000000000
 H   -0.479654869923   -1.895149716352    0.000000000000
 C   -3.852751869923   -2.485185716352    0.000000000000
 H   -4.804750869923   -1.942464716352    0.000000000000
 C   -2.636474869923   -1.777403716352    0.000000000000
 O   -2.575927869923   -0.396942716352    0.000000000000
 H   -3.479058869923   -0.048515716352    0.000000000000
CS    1.859584869253    1.910919225057    0.000000000000
