14

 C   -2.774929029885   -4.673764867274    0.000000000000
 H   -2.767207029885   -5.766939867274    0.000000000000
 C   -1.564453029885   -3.953925867274    0.000000000000
 H   -0.609434029885   -4.487624867274    0.000000000000
 C   -3.994753029885   -3.973758867274    0.000000000000
 H   -4.942885029885   -4.519570867274    0.000000000000
 C   -1.566861029885   -2.548780867274    0.000000000000
 H   -0.635507029885   -1.976241867274    0.000000000000
 C   -4.008604029885   -2.566277867274    0.000000000000
 H   -4.960603029885   -2.023556867274    0.000000000000
 C   -2.792327029885   -1.858495867274    0.000000000000
 O   -2.731780029885   -0.478034867274    0.000000000000
 H   -3.634911029885   -0.129607867274    0.000000000000
CS    1.969863473642    1.968298790620    0.000000000000
