14

 C   -2.826879749872   -4.700795584248    0.000000000000
 H   -2.819157749872   -5.793970584248    0.000000000000
 C   -1.616403749872   -3.980956584248    0.000000000000
 H   -0.661384749872   -4.514655584248    0.000000000000
 C   -4.046703749872   -4.000789584248    0.000000000000
 H   -4.994835749872   -4.546601584248    0.000000000000
 C   -1.618811749872   -2.575811584248    0.000000000000
 H   -0.687457749872   -2.003272584248    0.000000000000
 C   -4.060554749872   -2.593308584248    0.000000000000
 H   -5.012553749872   -2.050587584248    0.000000000000
 C   -2.844277749872   -1.885526584248    0.000000000000
 O   -2.783730749872   -0.505065584248    0.000000000000
 H   -3.686861749872   -0.156638584248    0.000000000000
CS    2.006623008438    1.987425312474    0.000000000000
