14

 C   -2.878830469860   -4.727826301222    0.000000000000
 H   -2.871108469860   -5.821001301222    0.000000000000
 C   -1.668354469860   -4.007987301222    0.000000000000
 H   -0.713335469860   -4.541686301222    0.000000000000
 C   -4.098654469860   -4.027820301222    0.000000000000
 H   -5.046786469860   -4.573632301222    0.000000000000
 C   -1.670762469860   -2.602842301222    0.000000000000
 H   -0.739408469860   -2.030303301222    0.000000000000
 C   -4.112505469860   -2.620339301222    0.000000000000
 H   -5.064504469860   -2.077618301222    0.000000000000
 C   -2.896228469860   -1.912557301222    0.000000000000
 O   -2.835681469860   -0.532096301222    0.000000000000
 H   -3.738812469860   -0.183669301222    0.000000000000
CS    2.043382543234    2.006551834328    0.000000000000
