14

 C   -3.086633349809   -4.835949169118    0.000000000000
 H   -3.078911349809   -5.929124169118    0.000000000000
 C   -1.876157349809   -4.116110169118    0.000000000000
 H   -0.921138349809   -4.649809169118    0.000000000000
 C   -4.306457349809   -4.135943169118    0.000000000000
 H   -5.254589349809   -4.681755169118    0.000000000000
 C   -1.878565349809   -2.710965169118    0.000000000000
 H   -0.947211349809   -2.138426169118    0.000000000000
 C   -4.320308349809   -2.728462169118    0.000000000000
 H   -5.272307349809   -2.185741169118    0.000000000000
 C   -3.104031349809   -2.020680169118    0.000000000000
 O   -3.043484349809   -0.640219169118    0.000000000000
 H   -3.946615349809   -0.291792169118    0.000000000000
CS    2.190420682420    2.083057921745    0.000000000000
