14

 C   -3.346386949745   -4.971102753988    0.000000000000
 H   -3.338664949745   -6.064277753988    0.000000000000
 C   -2.135910949745   -4.251263753988    0.000000000000
 H   -1.180891949745   -4.784962753988    0.000000000000
 C   -4.566210949745   -4.271096753988    0.000000000000
 H   -5.514342949745   -4.816908753988    0.000000000000
 C   -2.138318949745   -2.846118753988    0.000000000000
 H   -1.206964949745   -2.273579753988    0.000000000000
 C   -4.580061949745   -2.863615753988    0.000000000000
 H   -5.532060949745   -2.320894753988    0.000000000000
 C   -3.363784949745   -2.155833753988    0.000000000000
 O   -3.303237949745   -0.775372753988    0.000000000000
 H   -4.206368949745   -0.426945753988    0.000000000000
CS    2.374218356401    2.178690531015    0.000000000000
