14

 C   -3.502239109707   -5.052194904910    0.000000000000
 H   -3.494517109707   -6.145369904910    0.000000000000
 C   -2.291763109707   -4.332355904910    0.000000000000
 H   -1.336744109707   -4.866054904910    0.000000000000
 C   -4.722063109707   -4.352188904910    0.000000000000
 H   -5.670195109707   -4.898000904910    0.000000000000
 C   -2.294171109707   -2.927210904910    0.000000000000
 H   -1.362817109707   -2.354671904910    0.000000000000
 C   -4.735914109707   -2.944707904910    0.000000000000
 H   -5.687913109707   -2.401986904910    0.000000000000
 C   -3.519637109707   -2.236925904910    0.000000000000
 O   -3.459090109707   -0.856464904910    0.000000000000
 H   -4.362221109707   -0.508037904910    0.000000000000
CS    2.484496960790    2.236070096578    0.000000000000
