14

 C   -3.710041989656   -5.160317772806    0.000000000000
 H   -3.702319989656   -6.253492772806    0.000000000000
 C   -2.499565989656   -4.440478772806    0.000000000000
 H   -1.544546989656   -4.974177772806    0.000000000000
 C   -4.929865989656   -4.460311772806    0.000000000000
 H   -5.877997989656   -5.006123772806    0.000000000000
 C   -2.501973989656   -3.035333772806    0.000000000000
 H   -1.570619989656   -2.462794772806    0.000000000000
 C   -4.943716989656   -3.052830772806    0.000000000000
 H   -5.895715989656   -2.510109772806    0.000000000000
 C   -3.727439989656   -2.345048772806    0.000000000000
 O   -3.666892989656   -0.964587772806    0.000000000000
 H   -4.570023989656   -0.616160772806    0.000000000000
CS    2.631535099975    2.312576183994    0.000000000000
