14

 C   -3.865894149617   -5.241409923728    0.000000000000
 H   -3.858172149617   -6.334584923728    0.000000000000
 C   -2.655418149617   -4.521570923728    0.000000000000
 H   -1.700399149617   -5.055269923728    0.000000000000
 C   -5.085718149617   -4.541403923728    0.000000000000
 H   -6.033850149617   -5.087215923728    0.000000000000
 C   -2.657826149617   -3.116425923728    0.000000000000
 H   -1.726472149617   -2.543886923728    0.000000000000
 C   -5.099569149617   -3.133922923728    0.000000000000
 H   -6.051568149617   -2.591201923728    0.000000000000
 C   -3.883292149617   -2.426140923728    0.000000000000
 O   -3.822745149617   -1.045679923728    0.000000000000
 H   -4.725876149617   -0.697252923728    0.000000000000
CS    2.741813704364    2.369955749557    0.000000000000
