14

 C   -3.917844869605   -5.268440640702    0.000000000000
 H   -3.910122869605   -6.361615640702    0.000000000000
 C   -2.707368869605   -4.548601640702    0.000000000000
 H   -1.752349869605   -5.082300640702    0.000000000000
 C   -5.137668869605   -4.568434640702    0.000000000000
 H   -6.085800869605   -5.114246640702    0.000000000000
 C   -2.709776869605   -3.143456640702    0.000000000000
 H   -1.778422869605   -2.570917640702    0.000000000000
 C   -5.151519869605   -3.160953640702    0.000000000000
 H   -6.103518869605   -2.618232640702    0.000000000000
 C   -3.935242869605   -2.453171640702    0.000000000000
 O   -3.874695869605   -1.072710640702    0.000000000000
 H   -4.777826869605   -0.724283640702    0.000000000000
CS    2.778573239160    2.389082271411    0.000000000000
