14

 C   -4.125647749554   -5.376563508599    0.000000000000
 H   -4.117925749554   -6.469738508599    0.000000000000
 C   -2.915171749554   -4.656724508599    0.000000000000
 H   -1.960152749554   -5.190423508599    0.000000000000
 C   -5.345471749554   -4.676557508599    0.000000000000
 H   -6.293603749554   -5.222369508599    0.000000000000
 C   -2.917579749554   -3.251579508599    0.000000000000
 H   -1.986225749554   -2.679040508599    0.000000000000
 C   -5.359322749554   -3.269076508599    0.000000000000
 H   -6.311321749554   -2.726355508599    0.000000000000
 C   -4.143045749554   -2.561294508599    0.000000000000
 O   -4.082498749554   -1.180833508599    0.000000000000
 H   -4.985629749554   -0.832406508599    0.000000000000
CS    2.925611378345    2.465588358828    0.000000000000
