14

 C   -4.437352069477   -5.538747810443    0.000000000000
 H   -4.429630069477   -6.631922810443    0.000000000000
 C   -3.226876069477   -4.818908810443    0.000000000000
 H   -2.271857069477   -5.352607810443    0.000000000000
 C   -5.657176069477   -4.838741810443    0.000000000000
 H   -6.605308069477   -5.384553810443    0.000000000000
 C   -3.229284069477   -3.413763810443    0.000000000000
 H   -2.297930069477   -2.841224810443    0.000000000000
 C   -5.671027069477   -3.431260810443    0.000000000000
 H   -6.623026069477   -2.888539810443    0.000000000000
 C   -4.454750069477   -2.723478810443    0.000000000000
 O   -4.394203069477   -1.343017810443    0.000000000000
 H   -5.297334069477   -0.994590810443    0.000000000000
CS    3.146168587123    2.580347489953    0.000000000000
