14

 C   -4.489302789464   -5.565778527417    0.000000000000
 H   -4.481580789464   -6.658953527417    0.000000000000
 C   -3.278826789464   -4.845939527417    0.000000000000
 H   -2.323807789464   -5.379638527417    0.000000000000
 C   -5.709126789464   -4.865772527417    0.000000000000
 H   -6.657258789464   -5.411584527417    0.000000000000
 C   -3.281234789464   -3.440794527417    0.000000000000
 H   -2.349880789464   -2.868255527417    0.000000000000
 C   -5.722977789464   -3.458291527417    0.000000000000
 H   -6.674976789464   -2.915570527417    0.000000000000
 C   -4.506700789464   -2.750509527417    0.000000000000
 O   -4.446153789464   -1.370048527417    0.000000000000
 H   -5.349284789464   -1.021621527417    0.000000000000
CS    3.182928121919    2.599474011807    0.000000000000
