14

 C   -4.749056389400   -5.700932112287    0.000000000000
 H   -4.741334389400   -6.794107112287    0.000000000000
 C   -3.538580389400   -4.981093112287    0.000000000000
 H   -2.583561389400   -5.514792112287    0.000000000000
 C   -5.968880389400   -5.000926112287    0.000000000000
 H   -6.917012389400   -5.546738112287    0.000000000000
 C   -3.540988389400   -3.575948112287    0.000000000000
 H   -2.609634389400   -3.003409112287    0.000000000000
 C   -5.982731389400   -3.593445112287    0.000000000000
 H   -6.934730389400   -3.050724112287    0.000000000000
 C   -4.766454389400   -2.885663112287    0.000000000000
 O   -4.705907389400   -1.505202112287    0.000000000000
 H   -5.609038389400   -1.156775112287    0.000000000000
CS    3.366725795901    2.695106621077    0.000000000000
