14

 C   -4.852957829375   -5.754993546235    0.000000000000
 H   -4.845235829375   -6.848168546235    0.000000000000
 C   -3.642481829375   -5.035154546235    0.000000000000
 H   -2.687462829375   -5.568853546235    0.000000000000
 C   -6.072781829375   -5.054987546235    0.000000000000
 H   -7.020913829375   -5.600799546235    0.000000000000
 C   -3.644889829375   -3.630009546235    0.000000000000
 H   -2.713535829375   -3.057470546235    0.000000000000
 C   -6.086632829375   -3.647506546235    0.000000000000
 H   -7.038631829375   -3.104785546235    0.000000000000
 C   -4.870355829375   -2.939724546235    0.000000000000
 O   -4.809808829375   -1.559263546235    0.000000000000
 H   -5.712939829375   -1.210836546235    0.000000000000
CS    3.440244865493    2.733359664786    0.000000000000
