14

 C   -5.060760709324   -5.863116414131    0.000000000000
 H   -5.053038709324   -6.956291414131    0.000000000000
 C   -3.850284709324   -5.143277414131    0.000000000000
 H   -2.895265709324   -5.676976414131    0.000000000000
 C   -6.280584709324   -5.163110414131    0.000000000000
 H   -7.228716709324   -5.708922414131    0.000000000000
 C   -3.852692709324   -3.738132414131    0.000000000000
 H   -2.921338709324   -3.165593414131    0.000000000000
 C   -6.294435709324   -3.755629414131    0.000000000000
 H   -7.246434709324   -3.212908414131    0.000000000000
 C   -5.078158709324   -3.047847414131    0.000000000000
 O   -5.017611709324   -1.667386414131    0.000000000000
 H   -5.920742709324   -1.318959414131    0.000000000000
CS    3.587283004678    2.809865752202    0.000000000000
