14

 C   -5.112711429311   -5.890147131105    0.000000000000
 H   -5.104989429311   -6.983322131105    0.000000000000
 C   -3.902235429311   -5.170308131105    0.000000000000
 H   -2.947216429311   -5.704007131105    0.000000000000
 C   -6.332535429311   -5.190141131105    0.000000000000
 H   -7.280667429311   -5.735953131105    0.000000000000
 C   -3.904643429311   -3.765163131105    0.000000000000
 H   -2.973289429311   -3.192624131105    0.000000000000
 C   -6.346386429311   -3.782660131105    0.000000000000
 H   -7.298385429311   -3.239939131105    0.000000000000
 C   -5.130109429311   -3.074878131105    0.000000000000
 O   -5.069562429311   -1.694417131105    0.000000000000
 H   -5.972693429311   -1.345990131105    0.000000000000
CS    3.624042539475    2.828992274057    0.000000000000
