14

 C   -5.164662149298   -5.917177848079    0.000000000000
 H   -5.156940149298   -7.010352848079    0.000000000000
 C   -3.954186149298   -5.197338848079    0.000000000000
 H   -2.999167149298   -5.731037848079    0.000000000000
 C   -6.384486149298   -5.217171848079    0.000000000000
 H   -7.332618149298   -5.762983848079    0.000000000000
 C   -3.956594149298   -3.792193848079    0.000000000000
 H   -3.025240149298   -3.219654848079    0.000000000000
 C   -6.398337149298   -3.809690848079    0.000000000000
 H   -7.350336149298   -3.266969848079    0.000000000000
 C   -5.182060149298   -3.101908848079    0.000000000000
 O   -5.121513149298   -1.721447848079    0.000000000000
 H   -6.024644149298   -1.373020848079    0.000000000000
CS    3.660802074271    2.848118795911    0.000000000000
