27

 P    1.244923663030   -1.310749814364    0.664413174644
 O    0.442433663030   -0.345519814364    1.561033174644
 O    0.929563663030   -1.115269814364   -0.832546825356
 O    2.874243663030   -1.260559814364    0.975993174644
 O    1.094323663030   -2.890749814364    1.148313174644
 C    3.460923663030    0.006960185636    0.639213174644
 H    3.009873663030    0.815400185636    1.236303174644
 H    3.330733663030    0.222250185636   -0.433296825356
 H    4.530513663030   -0.070359814364    0.873363174644
 C   -0.260056336970   -3.365169814364    1.079223174644
 H   -0.633106336970   -3.328819814364    0.043053174644
 H   -0.915586336970   -2.764549814364    1.729503174644
 H   -0.246056336970   -4.405739814364    1.428553174644
LI   -0.383116336970    0.403370185636   -0.204466825356
 P   -1.223423358826    1.288107091549   -0.652936129027
 O   -2.852739519326    1.237920793810   -0.964516527400
 O   -1.072814379239    2.868107160619   -1.136836967120
 O   -0.420930275609    0.322880297265   -1.549555331970
 O   -0.908062217353    1.092629480087    0.844017750144
 C   -3.439421508805   -0.029598720444   -0.627737145898
 H   -2.988366706292   -0.838038246969   -1.224829843209
 H   -3.309235556368   -0.244888294085    0.444768631089
 H   -4.509014581693    0.047729906257   -0.861887662493
 C    0.281563707861    3.342532410942   -1.067744478818
 H    0.654611179596    3.306181221228   -0.031571853606
 H    0.937089106909    2.741912248120   -1.718026072680
 H    0.267566177712    4.383103663486   -1.417067667897
