27

 P    1.276360911124   -1.343849256456    0.681191138407
 O    0.473870911124   -0.378619256456    1.577811138407
 O    0.961000911124   -1.148369256456   -0.815768861593
 O    2.905680911124   -1.293659256456    0.992771138407
 O    1.125760911124   -2.923849256456    1.165091138407
 C    3.492360911124   -0.026139256456    0.655991138407
 H    3.041310911124    0.782300743544    1.253081138407
 H    3.362170911124    0.189150743544   -0.416518861593
 H    4.561950911124   -0.103459256456    0.890141138407
 C   -0.228619088876   -3.398269256456    1.096001138407
 H   -0.601669088876   -3.361919256456    0.059831138407
 H   -0.884149088876   -2.797649256456    1.746281138407
 H   -0.214619088876   -4.438839256456    1.445331138407
LI   -0.351679088876    0.370270743544   -0.187688861593
 P   -1.256625112413    1.323064334527   -0.670655804009
 O   -2.885941272913    1.272878036789   -0.982236202381
 O   -1.106016132826    2.903064403597   -1.154556642101
 O   -0.454132029196    0.357837540244   -1.567275006952
 O   -0.941263970940    1.127586723066    0.826298075163
 C   -3.472623262392    0.005358522534   -0.645456820879
 H   -3.021568459879   -0.803081003991   -1.242549518190
 H   -3.342437309955   -0.209931051106    0.427048956108
 H   -4.542216335280    0.082687149235   -0.879607337474
 C    0.248361954274    3.377489653920   -1.085464153800
 H    0.621409426009    3.341138464207   -0.049291528588
 H    0.903887353322    2.776869491098   -1.735745747661
 H    0.234364424124    4.418060906464   -1.434787342878
