27

 P    1.339235407312   -1.410048140640    0.714747065932
 O    0.536745407312   -0.444818140640    1.611367065932
 O    1.023875407312   -1.214568140640   -0.782212934068
 O    2.968555407312   -1.359858140640    1.026327065932
 O    1.188635407312   -2.990048140640    1.198647065932
 C    3.555235407312   -0.092338140640    0.689547065932
 H    3.104185407312    0.716101859360    1.286637065932
 H    3.425045407312    0.122951859360   -0.382962934068
 H    4.624825407312   -0.169658140640    0.923697065932
 C   -0.165744592688   -3.464468140640    1.129557065932
 H   -0.538794592688   -3.428118140640    0.093387065932
 H   -0.821274592688   -2.863848140640    1.779837065932
 H   -0.151744592688   -4.505038140640    1.478887065932
LI   -0.288804592688    0.304071859360   -0.154132934068
 P   -1.323028619587    1.392978820484   -0.706095153972
 O   -2.952344780088    1.342792522746   -1.017675552344
 O   -1.172419640000    2.972978889554   -1.189995992064
 O   -0.520535536370    0.427752026201   -1.602714356914
 O   -1.007667478114    1.197501209023    0.790858725200
 C   -3.539026769566    0.075273008491   -0.680896170842
 H   -3.087971967053   -0.733166518034   -1.277988868153
 H   -3.408840817129   -0.140016565149    0.391609606145
 H   -4.608619842454    0.152601635192   -0.915046687437
 C    0.181958447100    3.447404139877   -1.120903503763
 H    0.555005918834    3.411052950164   -0.084730878551
 H    0.837483846148    2.846783977055   -1.771185097624
 H    0.167960916950    4.487975392421   -1.470226692841
