27

 P    1.370672655406   -1.443147582731    0.731525029695
 O    0.568182655406   -0.477917582731    1.628145029695
 O    1.055312655406   -1.247667582731   -0.765434970305
 O    2.999992655406   -1.392957582731    1.043105029695
 O    1.220072655406   -3.023147582731    1.215425029695
 C    3.586672655406   -0.125437582731    0.706325029695
 H    3.135622655406    0.683002417269    1.303415029695
 H    3.456482655406    0.089852417269   -0.366184970305
 H    4.656262655406   -0.202757582731    0.940475029695
 C   -0.134307344594   -3.497567582731    1.146335029695
 H   -0.507357344594   -3.461217582731    0.110165029695
 H   -0.789837344594   -2.896947582731    1.796615029695
 H   -0.120307344594   -4.538137582731    1.495665029695
LI   -0.257367344594    0.270972417269   -0.137354970305
 P   -1.356230373174    1.427936063463   -0.723814828953
 O   -2.985546533675    1.377749765724   -1.035395227326
 O   -1.205621393588    3.007936132533   -1.207715667045
 O   -0.553737289957    0.462709269179   -1.620434031896
 O   -1.040869231701    1.232458452001    0.773139050218
 C   -3.572228523153    0.110230251470   -0.698615845823
 H   -3.121173720640   -0.698209275055   -1.295708543134
 H   -3.442042570716   -0.105059322171    0.373889931163
 H   -4.641821596042    0.187558878170   -0.932766362418
 C    0.148756693513    3.482361382855   -1.138623178744
 H    0.521804165247    3.446010193142   -0.102450553532
 H    0.804282092561    2.881741220034   -1.788904772605
 H    0.134759163363    4.522932635400   -1.487946367823
