27

 P    1.590733392065   -1.674843677374    0.848970776033
 O    0.788243392065   -0.709613677374    1.745590776033
 O    1.275373392065   -1.479363677374   -0.647989223967
 O    3.220053392065   -1.624653677374    1.160550776033
 O    1.440133392065   -3.254843677374    1.332870776033
 C    3.806733392065   -0.357133677374    0.823770776033
 H    3.355683392065    0.451306322626    1.420860776033
 H    3.676543392065   -0.141843677374   -0.248739223967
 H    4.876323392065   -0.434453677374    1.057920776033
 C    0.085753392065   -3.729263677374    1.263780776033
 H   -0.287296607935   -3.692913677374    0.227610776033
 H   -0.569776607935   -3.128643677374    1.914060776033
 H    0.099753392065   -4.769833677374    1.613110776033
LI   -0.037306607935    0.039276322626   -0.019909223967
 P   -1.588642648283    1.672636764312   -0.847852553823
 O   -3.217958808784    1.622450466573   -1.159432952195
 O   -1.438033668697    3.252636833382   -1.331753391915
 O   -0.786149565066    0.707409970028   -1.744471756766
 O   -1.273281506811    1.477159152850    0.649101325349
 C   -3.804640798263    0.354930952319   -0.822653570693
 H   -3.353585995749   -0.453508574206   -1.419746268004
 H   -3.674454845825    0.139641378678    0.249852206294
 H   -4.874233871151    0.432259579020   -1.056804087288
 C   -0.083655581597    3.727062083705   -1.262660903614
 H    0.289391890138    3.690710893991   -0.226488278402
 H    0.571869817451    3.126441920883   -1.912942497475
 H   -0.097653111746    4.767633336249   -1.611984092692
