27

 P    1.653607888253   -1.741042561557    0.882526703558
 O    0.851117888253   -0.775812561557    1.779146703558
 O    1.338247888253   -1.545562561557   -0.614433296442
 O    3.282927888253   -1.690852561557    1.194106703558
 O    1.503007888253   -3.321042561557    1.366426703558
 C    3.869607888253   -0.423332561557    0.857326703558
 H    3.418557888253    0.385107438443    1.454416703558
 H    3.739417888253   -0.208042561557   -0.215183296442
 H    4.939197888253   -0.500652561557    1.091476703558
 C    0.148627888253   -3.795462561557    1.297336703558
 H   -0.224422111747   -3.759112561557    0.261166703558
 H   -0.506902111747   -3.194842561557    1.947616703558
 H    0.162627888253   -4.836032561557    1.646666703558
LI    0.025567888253   -0.026922561557    0.013646703558
 P   -1.655046155457    1.742551250269   -0.883291903786
 O   -3.284362315958    1.692364952530   -1.194872302158
 O   -1.504437175871    3.322551319339   -1.367192741878
 O   -0.852553072240    0.777324455985   -1.779911106728
 O   -1.339685013985    1.547073638807    0.613661975386
 C   -3.871044305437    0.424845438276   -0.858092920656
 H   -3.419989502924   -0.383594088249   -1.455185617967
 H   -3.740858352999    0.209555864635    0.214412856331
 H   -4.940637378325    0.502174064976   -1.092243437251
 C   -0.150059088771    3.796976569662   -1.298100253577
 H    0.222988382964    3.760625379948   -0.261927628365
 H    0.505466310277    3.196356406840   -1.948381847438
 H   -0.164056618920    4.837547822206   -1.647423442655
