27

 P    1.810794128724   -1.906539772016    0.966416522371
 O    1.008304128724   -0.941309772016    1.863036522371
 O    1.495434128724   -1.711059772016   -0.530543477629
 O    3.440114128724   -1.856349772016    1.277996522371
 O    1.660194128724   -3.486539772016    1.450316522371
 C    4.026794128724   -0.588829772016    0.941216522371
 H    3.575744128724    0.219610227984    1.538306522371
 H    3.896604128724   -0.373539772016   -0.131293477629
 H    5.096384128724   -0.666149772016    1.175366522371
 C    0.305814128724   -3.960959772016    1.381226522371
 H   -0.067235871276   -3.924609772016    0.345056522371
 H   -0.349715871276   -3.360339772016    2.031506522371
 H    0.319814128724   -5.001529772016    1.730556522371
LI    0.182754128724   -0.192419772016    0.097536522371
 P   -1.821054923393    1.917337465161   -0.971890278693
 O   -3.450371083893    1.867151167423   -1.283470677065
 O   -1.670445943806    3.497337534231   -1.455791116785
 O   -1.018561840176    0.952110670878   -1.868509481635
 O   -1.505693781920    1.721859853700    0.525063600479
 C   -4.037053073372    0.599631653168   -0.946691295563
 H   -3.585998270859   -0.208807873357   -1.543783992874
 H   -3.906867120935    0.384342079528    0.125814481424
 H   -5.106646146260    0.676960279869   -1.180841812158
 C   -0.316067856706    3.971762784554   -1.386698628484
 H    0.056979615029    3.935411594841   -0.350526003272
 H    0.339457542342    3.371142621732   -2.036980222345
 H   -0.330065386856    5.012334037098   -1.736021817562
