27

 P    1.873668624912   -1.972738656200    0.999972449896
 O    1.071178624912   -1.007508656200    1.896592449896
 O    1.558308624912   -1.777258656200   -0.496987550104
 O    3.502988624912   -1.922548656200    1.311552449896
 O    1.723068624912   -3.552738656200    1.483872449896
 C    4.089668624912   -0.655028656200    0.974772449896
 H    3.638618624912    0.153411343800    1.571862449896
 H    3.959478624912   -0.439738656200   -0.097737550104
 H    5.159258624912   -0.732348656200    1.208922449896
 C    0.368688624912   -4.027158656200    1.414782449896
 H   -0.004361375088   -3.990808656200    0.378612449896
 H   -0.286841375088   -3.426538656200    2.065062449896
 H    0.382688624912   -5.067728656200    1.764112449896
LI    0.245628624912   -0.258618656200    0.131092449896
 P   -1.887458430567    1.987251951118   -1.007329628655
 O   -3.516774591068    1.937065653380   -1.318910027028
 O   -1.736849450980    3.567252020188   -1.491230466748
 O   -1.084965347350    1.022025156834   -1.903948831598
 O   -1.572097289094    1.791774339656    0.489624250516
 C   -4.103456580546    0.669546139125   -0.982130645526
 H   -3.652401778033   -0.138893387400   -1.579223342837
 H   -3.973270628109    0.454256565485    0.090375131461
 H   -5.173049653434    0.746874765826   -1.216281162121
 C   -0.382471363880    4.041677270511   -1.422137978446
 H   -0.009423892146    4.005326080797   -0.385965353235
 H    0.273054035168    3.441057107689   -2.072419572308
 H   -0.396468894030    5.082248523055   -1.771461167525
