27

 P    1.905105873007   -2.005838098292    1.016750413658
 O    1.102615873007   -1.040608098292    1.913370413658
 O    1.589745873007   -1.810358098292   -0.480209586342
 O    3.534425873007   -1.955648098292    1.328330413658
 O    1.754505873007   -3.585838098292    1.500650413658
 C    4.121105873007   -0.688128098292    0.991550413658
 H    3.670055873007    0.120311901708    1.588640413658
 H    3.990915873007   -0.472838098292   -0.080959586342
 H    5.190695873007   -0.765448098292    1.225700413658
 C    0.400125873007   -4.060258098292    1.431560413658
 H    0.027075873007   -4.023908098292    0.395390413658
 H   -0.255404126993   -3.459638098292    2.081840413658
 H    0.414125873007   -5.100828098292    1.780890413658
LI    0.277065873007   -0.291718098292    0.147870413658
 P   -1.920660184154    2.022209194097   -1.025049303637
 O   -3.549976344655    1.972022896358   -1.336629702009
 O   -1.770051204567    3.602209263167   -1.508950141729
 O   -1.118167100937    1.056982399813   -1.921668506580
 O   -1.605299042681    1.826731582635    0.471904575535
 C   -4.136658334133    0.704503382103   -0.999850320507
 H   -3.685603531620   -0.103936144421   -1.596943017818
 H   -4.006472381696    0.489213808463    0.072655456480
 H   -5.206251407022    0.781832008804   -1.234000837102
 C   -0.415673117467    4.076634513489   -1.439857653428
 H   -0.042625645733    4.040283323776   -0.403685028216
 H    0.239852281581    3.476014350667   -2.090139247289
 H   -0.429670647617    5.117205766033   -1.789180842506
