27

 P    2.093729361571   -2.204434750842    1.117418196234
 O    1.291239361571   -1.239204750842    2.014038196234
 O    1.778369361571   -2.008954750842   -0.379541803766
 O    3.723049361571   -2.154244750842    1.428998196234
 O    1.943129361571   -3.784434750842    1.601318196234
 C    4.309729361571   -0.886724750842    1.092218196234
 H    3.858679361571   -0.078284750842    1.689308196234
 H    4.179539361571   -0.671434750842    0.019708196234
 H    5.379319361571   -0.964044750842    1.326368196234
 C    0.588749361571   -4.258854750842    1.532228196234
 H    0.215699361571   -4.222504750842    0.496058196234
 H   -0.066780638429   -3.658234750842    2.182508196234
 H    0.602749361571   -5.299424750842    1.881558196234
LI    0.465689361571   -0.490314750842    0.248538196234
 P   -2.119870705676    2.231952651967   -1.131367353525
 O   -3.749186866177    2.181766354229   -1.442947751898
 O   -1.969261726090    3.811952721037   -1.615268191618
 O   -1.317377622459    1.266725857684   -2.027986556468
 O   -1.804509564204    2.036475040506    0.365586525646
 C   -4.335868855655    0.914246839974   -1.106168370396
 H   -3.884814053142    0.105807313449   -1.703261067707
 H   -4.205682903218    0.698957266334   -0.033662593409
 H   -5.405461928544    0.991575466675   -1.340318886991
 C   -0.614883638990    4.286377971360   -1.546175703316
 H   -0.241836167255    4.250026781647   -0.510003078104
 H    0.040641760058    3.685757808538   -2.196457297178
 H   -0.628881169139    5.326949223904   -1.895498892395
