27

 P    2.282352850136   -2.403031403393    1.218085978809
 O    1.479862850136   -1.437801403393    2.114705978809
 O    1.966992850136   -2.207551403393   -0.278874021191
 O    3.911672850136   -2.352841403393    1.529665978809
 O    2.131752850136   -3.983031403393    1.701985978809
 C    4.498352850136   -1.085321403393    1.192885978809
 H    4.047302850136   -0.276881403393    1.789975978809
 H    4.368162850136   -0.870031403393    0.120375978809
 H    5.567942850136   -1.162641403393    1.427035978809
 C    0.777372850136   -4.457451403393    1.632895978809
 H    0.404322850136   -4.421101403393    0.596725978809
 H    0.121842850136   -3.856831403393    2.283175978809
 H    0.791372850136   -5.498021403393    1.982225978809
LI    0.654312850136   -0.688911403393    0.349205978809
 P   -2.319081227198    2.441696109838   -1.237685403414
 O   -3.948397387699    2.391509812100   -1.549265801786
 O   -2.168472247612    4.021696178908   -1.721586241506
 O   -1.516588143981    1.476469315554   -2.134304606356
 O   -2.003720085726    2.246218498376    0.259268475758
 C   -4.535079377178    1.123990297845   -1.212486420284
 H   -4.084024574665    0.315550771320   -1.809579117595
 H   -4.404893424741    0.908700724204   -0.139980643297
 H   -5.604672450066    1.201318924546   -1.446636936879
 C   -0.814094160512    4.496121429231   -1.652493753205
 H   -0.441046688777    4.459770239517   -0.616321127993
 H   -0.158568761464    3.895501266409   -2.302775347066
 H   -0.828091690661    5.536692681775   -2.001816942283
