27

 P    2.313790098230   -2.436130845485    1.234863942572
 O    1.511300098230   -1.470900845485    2.131483942572
 O    1.998430098230   -2.240650845485   -0.262096057428
 O    3.943110098230   -2.385940845485    1.546443942572
 O    2.163190098230   -4.016130845485    1.718763942572
 C    4.529790098230   -1.118420845485    1.209663942572
 H    4.078740098230   -0.309980845485    1.806753942572
 H    4.399600098230   -0.903130845485    0.137153942572
 H    5.599380098230   -1.195740845485    1.443813942572
 C    0.808810098230   -4.490550845485    1.649673942572
 H    0.435760098230   -4.454200845485    0.613503942572
 H    0.153280098230   -3.889930845485    2.299953942572
 H    0.822810098230   -5.531120845485    1.999003942572
LI    0.685750098230   -0.722010845485    0.365983942572
 P   -2.352282980786    2.476653352816   -1.255405078395
 O   -3.981599141286    2.426467055078   -1.566985476768
 O   -2.201674001199    4.056653421887   -1.739305916487
 O   -1.549789897568    1.511426558533   -2.152024281338
 O   -2.036921839313    2.281175741355    0.241548800776
 C   -4.568281130765    1.158947540823   -1.230206095265
 H   -4.117226328252    0.350508014298   -1.827298792576
 H   -4.438095178328    0.943657967183   -0.157700318279
 H   -5.637874203653    1.236276167524   -1.464356611860
 C   -0.847295914099    4.531078672209   -1.670213428186
 H   -0.474248442364    4.494727482496   -0.634040802974
 H   -0.191770515051    3.930458509387   -2.320495022047
 H   -0.861293444248    5.571649924753   -2.019536617265
