27

 P    2.345227346324   -2.469230287577    1.251641906335
 O    1.542737346324   -1.504000287577    2.148261906335
 O    2.029867346324   -2.273750287577   -0.245318093665
 O    3.974547346324   -2.419040287577    1.563221906335
 O    2.194627346324   -4.049230287577    1.735541906335
 C    4.561227346324   -1.151520287577    1.226441906335
 H    4.110177346324   -0.343080287577    1.823531906335
 H    4.431037346324   -0.936230287577    0.153931906335
 H    5.630817346324   -1.228840287577    1.460591906335
 C    0.840247346324   -4.523650287577    1.666451906335
 H    0.467197346324   -4.487300287577    0.630281906335
 H    0.184717346324   -3.923030287577    2.316731906335
 H    0.854247346324   -5.564220287577    2.015781906335
LI    0.717187346324   -0.755110287577    0.382761906335
 P   -2.385484734373    2.511610595795   -1.273124753376
 O   -4.014800894873    2.461424298056   -1.584705151749
 O   -2.234875754786    4.091610664865   -1.757025591469
 O   -1.582991651156    1.546383801511   -2.169743956319
 O   -2.070123592900    2.316132984333    0.223829125795
 C   -4.601482884352    1.193904783802   -1.247925770247
 H   -4.150428081839    0.385465257277   -1.845018467558
 H   -4.471296931915    0.978615210161   -0.175419993260
 H   -5.671075957240    1.271233410503   -1.482076286842
 C   -0.880497667686    4.566035915188   -1.687933103168
 H   -0.507450195951    4.529684725474   -0.651760477956
 H   -0.224972268638    3.965415752366   -2.338214697029
 H   -0.894495197835    5.606607167732   -2.037256292246
