27

 P    2.376664594418   -2.502329729668    1.268419870097
 O    1.574174594418   -1.537099729668    2.165039870097
 O    2.061304594418   -2.306849729668   -0.228540129903
 O    4.005984594418   -2.452139729668    1.579999870097
 O    2.226064594418   -4.082329729668    1.752319870097
 C    4.592664594418   -1.184619729668    1.243219870097
 H    4.141614594418   -0.376179729668    1.840309870097
 H    4.462474594418   -0.969329729668    0.170709870097
 H    5.662254594418   -1.261939729668    1.477369870097
 C    0.871684594418   -4.556749729668    1.683229870097
 H    0.498634594418   -4.520399729668    0.647059870097
 H    0.216154594418   -3.956129729668    2.333509870097
 H    0.885684594418   -5.597319729668    2.032559870097
LI    0.748624594418   -0.788209729668    0.399539870097
 P   -2.418686487960    2.546567838773   -1.290844428358
 O   -4.048002648460    2.496381541035   -1.602424826730
 O   -2.268077508373    4.126567907843   -1.774745266450
 O   -1.616193404743    1.581341044490   -2.187463631301
 O   -2.103325346487    2.351090227312    0.206109450814
 C   -4.634684637939    1.228862026780   -1.265645445228
 H   -4.183629835426    0.420422500255   -1.862738142539
 H   -4.504498685502    1.013572453140   -0.193139668242
 H   -5.704277710827    1.306190653481   -1.499795961823
 C   -0.913699421273    4.600993158166   -1.705652778149
 H   -0.540651949538    4.564641968453   -0.669480152937
 H   -0.258174022225    4.000372995344   -2.355934372010
 H   -0.927696951423    5.641564410710   -2.054975967227
