27

 P    2.502413586795   -2.634727498035    1.335531725147
 O    1.699923586795   -1.669497498035    2.232151725147
 O    2.187053586795   -2.439247498035   -0.161428274853
 O    4.131733586795   -2.584537498035    1.647111725147
 O    2.351813586795   -4.214727498035    1.819431725147
 C    4.718413586795   -1.317017498035    1.310331725147
 H    4.267363586795   -0.508577498035    1.907421725147
 H    4.588223586795   -1.101727498035    0.237821725147
 H    5.788003586795   -1.394337498035    1.544481725147
 C    0.997433586795   -4.689147498035    1.750341725147
 H    0.624383586795   -4.652797498035    0.714171725147
 H    0.341903586795   -4.088527498035    2.400621725147
 H    1.011433586795   -5.729717498035    2.099671725147
LI    0.874373586795   -0.920607498035    0.466651725147
 P   -2.551493502308    2.686396810687   -1.361723128284
 O   -4.180809662809    2.636210512949   -1.673303526656
 O   -2.400884522722    4.266396879757   -1.845623966376
 O   -1.749000419091    1.721170016404   -2.258342331226
 O   -2.236132360835    2.490919199226    0.135230750888
 C   -4.767491652287    1.368690998694   -1.336524145154
 H   -4.316436849774    0.560251472169   -1.933616842465
 H   -4.637305699850    1.153401425054   -0.264018368167
 H   -5.837084725176    1.446019625395   -1.570674661749
 C   -1.046506435622    4.740822130080   -1.776531478075
 H   -0.673458963887    4.704470940367   -0.740358852863
 H   -0.390981036574    4.140201967258   -2.426813071936
 H   -1.060503965771    5.781393382624   -2.125854667153
