27

 P    2.533850834889   -2.667826940127    1.352309688910
 O    1.731360834889   -1.702596940127    2.248929688910
 O    2.218490834889   -2.472346940127   -0.144650311090
 O    4.163170834889   -2.617636940127    1.663889688910
 O    2.383250834889   -4.247826940127    1.836209688910
 C    4.749850834889   -1.350116940127    1.327109688910
 H    4.298800834889   -0.541676940127    1.924199688910
 H    4.619660834889   -1.134826940127    0.254599688910
 H    5.819440834889   -1.427436940127    1.561259688910
 C    1.028870834889   -4.722246940127    1.767119688910
 H    0.655820834889   -4.685896940127    0.730949688910
 H    0.373340834889   -4.121626940127    2.417399688910
 H    1.042870834889   -5.762816940127    2.116449688910
LI    0.905810834889   -0.953706940127    0.483429688910
 P   -2.584695255895    2.721354053666   -1.379442803265
 O   -4.214011416396    2.671167755927   -1.691023201637
 O   -2.434086276309    4.301354122736   -1.863343641357
 O   -1.782202172678    1.756127259382   -2.276062006208
 O   -2.269334114423    2.525876442204    0.117511075907
 C   -4.800693405874    1.403648241672   -1.354243820135
 H   -4.349638603361    0.595208715148   -1.951336517446
 H   -4.670507453437    1.188358668032   -0.281738043149
 H   -5.870286478763    1.480976868373   -1.588394336730
 C   -1.079708189209    4.775779373058   -1.794251153056
 H   -0.706660717474    4.739428183345   -0.758078527844
 H   -0.424182790161    4.175159210237   -2.444532746917
 H   -1.093705719358    5.816350625603   -2.143574342135
