27

 P    2.565288082983   -2.700926382219    1.369087652673
 O    1.762798082983   -1.735696382219    2.265707652673
 O    2.249928082983   -2.505446382219   -0.127872347327
 O    4.194608082983   -2.650736382219    1.680667652673
 O    2.414688082983   -4.280926382219    1.852987652673
 C    4.781288082983   -1.383216382219    1.343887652673
 H    4.330238082983   -0.574776382219    1.940977652673
 H    4.651098082983   -1.167926382219    0.271377652673
 H    5.850878082983   -1.460536382219    1.578037652673
 C    1.060308082983   -4.755346382219    1.783897652673
 H    0.687258082983   -4.718996382219    0.747727652673
 H    0.404778082983   -4.154726382219    2.434177652673
 H    1.074308082983   -5.795916382219    2.133227652673
LI    0.937248082983   -0.986806382219    0.500207652673
 P   -2.617897009482    2.756311296644   -1.397162478246
 O   -4.247213169983    2.706124998906   -1.708742876619
 O   -2.467288029896    4.336311365714   -1.881063316339
 O   -1.815403926265    1.791084502361   -2.293781681189
 O   -2.302535868010    2.560833685183    0.099791400925
 C   -4.833895159461    1.438605484651   -1.371963495117
 H   -4.382840356948    0.630165958126   -1.969056192428
 H   -4.703709207024    1.223315911011   -0.299457718130
 H   -5.903488232350    1.515934111352   -1.606114011712
 C   -1.112909942796    4.810736616037   -1.811970828037
 H   -0.739862471061    4.774385426323   -0.775798202825
 H   -0.457384543748    4.210116453215   -2.462252421899
 H   -1.126907472945    5.851307868581   -2.161294017116
