27

 P    2.596725331077   -2.734025824311    1.385865616435
 O    1.794235331077   -1.768795824311    2.282485616435
 O    2.281365331077   -2.538545824311   -0.111094383565
 O    4.226045331077   -2.683835824311    1.697445616435
 O    2.446125331077   -4.314025824311    1.869765616435
 C    4.812725331077   -1.416315824311    1.360665616435
 H    4.361675331077   -0.607875824311    1.957755616435
 H    4.682535331077   -1.201025824311    0.288155616435
 H    5.882315331077   -1.493635824311    1.594815616435
 C    1.091745331077   -4.788445824311    1.800675616435
 H    0.718695331077   -4.752095824311    0.764505616435
 H    0.436215331077   -4.187825824311    2.450955616435
 H    1.105745331077   -5.829015824311    2.150005616435
LI    0.968685331077   -1.019905824311    0.516985616435
 P   -2.651098763069    2.791268539623   -1.414882153228
 O   -4.280414923570    2.741082241884   -1.726462551600
 O   -2.500489783483    4.371268608693   -1.898782991320
 O   -1.848605679852    1.826041745339   -2.311501356171
 O   -2.335737621597    2.595790928161    0.082071725944
 C   -4.867096913048    1.473562727629   -1.389683170098
 H   -4.416042110535    0.665123201105   -1.986775867409
 H   -4.736910960611    1.258273153989   -0.317177393111
 H   -5.936689985937    1.550891354330   -1.623833686693
 C   -1.146111696383    4.845693859015   -1.829690503019
 H   -0.773064224648    4.809342669302   -0.793517877807
 H   -0.490586297335    4.245073696193   -2.479972096880
 H   -1.160109226532    5.886265111560   -2.179013692097
