27

 P    2.628162579171   -2.767125266403    1.402643580198
 O    1.825672579171   -1.801895266403    2.299263580198
 O    2.312802579171   -2.571645266403   -0.094316419802
 O    4.257482579171   -2.716935266403    1.714223580198
 O    2.477562579171   -4.347125266403    1.886543580198
 C    4.844162579171   -1.449415266403    1.377443580198
 H    4.393112579171   -0.640975266403    1.974533580198
 H    4.713972579171   -1.234125266403    0.304933580198
 H    5.913752579171   -1.526735266403    1.611593580198
 C    1.123182579171   -4.821545266403    1.817453580198
 H    0.750132579171   -4.785195266403    0.781283580198
 H    0.467652579171   -4.220925266403    2.467733580198
 H    1.137182579171   -5.862115266403    2.166783580198
LI    1.000122579171   -1.053005266403    0.533763580198
 P   -2.684300516656    2.826225782601   -1.432601828209
 O   -4.313616677157    2.776039484863   -1.744182226582
 O   -2.533691537070    4.406225851671   -1.916502666301
 O   -1.881807433439    1.860998988317   -2.329221031152
 O   -2.368939375184    2.630748171139    0.064352050962
 C   -4.900298666635    1.508519970608   -1.407402845079
 H   -4.449243864122    0.700080444083   -2.004495542391
 H   -4.770112714198    1.293230396967   -0.334897068093
 H   -5.969891739524    1.585848597309   -1.641553361675
 C   -1.179313449970    4.880651101994   -1.847410178000
 H   -0.806265978235    4.844299912280   -0.811237552788
 H   -0.523788050922    4.280030939172   -2.497691771861
 H   -1.193310980119    5.921222354538   -2.196733367079
