27

 P    2.659599827266   -2.800224708494    1.419421543960
 O    1.857109827266   -1.834994708494    2.316041543960
 O    2.344239827266   -2.604744708494   -0.077538456040
 O    4.288919827266   -2.750034708494    1.731001543960
 O    2.508999827266   -4.380224708494    1.903321543960
 C    4.875599827266   -1.482514708494    1.394221543960
 H    4.424549827266   -0.674074708494    1.991311543960
 H    4.745409827266   -1.267224708494    0.321711543960
 H    5.945189827266   -1.559834708494    1.628371543960
 C    1.154619827266   -4.854644708494    1.834231543960
 H    0.781569827266   -4.818294708494    0.798061543960
 H    0.499089827266   -4.254024708494    2.484511543960
 H    1.168619827266   -5.895214708494    2.183561543960
LI    1.031559827266   -1.086104708494    0.550541543960
 P   -2.717502270243    2.861183025579   -1.450321503191
 O   -4.346818430744    2.810996727841   -1.761901901563
 O   -2.566893290657    4.441183094650   -1.934222341283
 O   -1.915009187026    1.895956231296   -2.346940706133
 O   -2.402141128771    2.665705414118    0.046632375981
 C   -4.933500420223    1.543477213586   -1.425122520061
 H   -4.482445617709    0.735037687061   -2.022215217372
 H   -4.803314467785    1.328187639946   -0.352616743074
 H   -6.003093493111    1.620805840287   -1.659273036656
 C   -1.212515203557    4.915608344972   -1.865129852982
 H   -0.839467731822    4.879257155259   -0.828957227770
 H   -0.556989804509    4.314988182150   -2.515411446843
 H   -1.226512733706    5.956179597516   -2.214453042060
