27

 P    2.691037075360   -2.833324150586    1.436199507723
 O    1.888547075360   -1.868094150586    2.332819507723
 O    2.375677075360   -2.637844150586   -0.060760492277
 O    4.320357075360   -2.783134150586    1.747779507723
 O    2.540437075360   -4.413324150586    1.920099507723
 C    4.907037075360   -1.515614150586    1.410999507723
 H    4.455987075360   -0.707174150586    2.008089507723
 H    4.776847075360   -1.300324150586    0.338489507723
 H    5.976627075360   -1.592934150586    1.645149507723
 C    1.186057075360   -4.887744150586    1.851009507723
 H    0.813007075360   -4.851394150586    0.814839507723
 H    0.530527075360   -4.287124150586    2.501289507723
 H    1.200057075360   -5.928314150586    2.200339507723
LI    1.062997075360   -1.119204150586    0.567319507723
 P   -2.750704023830    2.896140268558   -1.468041178172
 O   -4.380020184331    2.845953970819   -1.779621576544
 O   -2.600095044244    4.476140337628   -1.951942016264
 O   -1.948210940613    1.930913474274   -2.364660381115
 O   -2.435342882358    2.700662657096    0.028912701000
 C   -4.966702173810    1.578434456565   -1.442842195042
 H   -4.515647371296    0.769994930040   -2.039934892353
 H   -4.836516221372    1.363144882924   -0.370336418056
 H   -6.036295246698    1.655763083266   -1.676992711637
 C   -1.245716957144    4.950565587951   -1.882849527963
 H   -0.872669485409    4.914214398237   -0.846676902751
 H   -0.590191558096    4.349945425129   -2.533131121824
 H   -1.259714487293    5.991136840495   -2.232172717042
