27

 P    2.722474323454   -2.866423592678    1.452977471485
 O    1.919984323454   -1.901193592678    2.349597471485
 O    2.407114323454   -2.670943592678   -0.043982528515
 O    4.351794323454   -2.816233592678    1.764557471485
 O    2.571874323454   -4.446423592678    1.936877471485
 C    4.938474323454   -1.548713592678    1.427777471485
 H    4.487424323454   -0.740273592678    2.024867471485
 H    4.808284323454   -1.333423592678    0.355267471485
 H    6.008064323454   -1.626033592678    1.661927471485
 C    1.217494323454   -4.920843592678    1.867787471485
 H    0.844444323454   -4.884493592678    0.831617471485
 H    0.561964323454   -4.320223592678    2.518067471485
 H    1.231494323454   -5.961413592678    2.217117471485
LI    1.094434323454   -1.152303592678    0.584097471485
 P   -2.783905777417    2.931097511536   -1.485760853153
 O   -4.413221937918    2.880911213798   -1.797341251526
 O   -2.633296797831    4.511097580606   -1.969661691246
 O   -1.981412694200    1.965870717253   -2.382380056096
 O   -2.468544635945    2.735619900075    0.011193026018
 C   -4.999903927397    1.613391699543   -1.460561870024
 H   -4.548849124884    0.804952173018   -2.057654567335
 H   -4.869717974959    1.398102125903   -0.388056093037
 H   -6.069497000285    1.690720326244   -1.694712386619
 C   -1.278918710731    4.985522830929   -1.900569202944
 H   -0.905871238996    4.949171641216   -0.864396577732
 H   -0.623393311683    4.384902668107   -2.550850796806
 H   -1.292916240880    6.026094083473   -2.249892392023
