27

 P    2.942535060113   -3.098119687320    1.570423217823
 O    2.140045060113   -2.132889687320    2.467043217823
 O    2.627175060113   -2.902639687320    0.073463217823
 O    4.571855060113   -3.047929687320    1.882003217823
 O    2.791935060113   -4.678119687320    2.054323217823
 C    5.158535060113   -1.780409687320    1.545223217823
 H    4.707485060113   -0.971969687320    2.142313217823
 H    5.028345060113   -1.565119687320    0.472713217823
 H    6.228125060113   -1.857729687320    1.779373217823
 C    1.437555060113   -5.152539687320    1.985233217823
 H    1.064505060113   -5.116189687320    0.949063217823
 H    0.782025060113   -4.551919687320    2.635513217823
 H    1.451555060113   -6.193109687320    2.334563217823
LI    1.314495060113   -1.383999687320    0.701543217823
 P   -3.016318052527    3.175798212386   -1.609798578023
 O   -4.645634213028    3.125611914647   -1.921378976396
 O   -2.865709072940    4.755798281456   -2.093699416116
 O   -2.213824969310    2.210571418102   -2.506417780966
 O   -2.700956911054    2.980320600924   -0.112844698852
 C   -5.232316202506    1.858092400392   -1.584599594893
 H   -4.781261399993    1.049652873868   -2.181692292205
 H   -5.102130250069    1.642802826752   -0.512093817907
 H   -6.301909275394    1.935421027093   -1.818750111489
 C   -1.511330985840    5.230223531778   -2.024606927814
 H   -1.138283514105    5.193872342065   -0.988434302602
 H   -0.855805586792    4.629603368956   -2.674888521676
 H   -1.525328515990    6.270794784323   -2.373930116893
