27

 P    3.005409556301   -3.164318571504    1.603979145349
 O    2.202919556301   -2.199088571504    2.500599145349
 O    2.690049556301   -2.968838571504    0.107019145349
 O    4.634729556301   -3.114128571504    1.915559145349
 O    2.854809556301   -4.744318571504    2.087879145349
 C    5.221409556301   -1.846608571504    1.578779145349
 H    4.770359556301   -1.038168571504    2.175869145349
 H    5.091219556301   -1.631318571504    0.506269145349
 H    6.290999556301   -1.923928571504    1.812929145349
 C    1.500429556301   -5.218738571504    2.018789145349
 H    1.127379556301   -5.182388571504    0.982619145349
 H    0.844899556301   -4.618118571504    2.669069145349
 H    1.514429556301   -6.259308571504    2.368119145349
LI    1.377369556301   -1.450198571504    0.735099145349
 P   -3.082721559701    3.245712698343   -1.645237927986
 O   -4.712037720202    3.195526400604   -1.956818326358
 O   -2.932112580114    4.825712767413   -2.129138766078
 O   -2.280228476484    2.280485904059   -2.541857130929
 O   -2.767360418228    3.050235086881   -0.148284048814
 C   -5.298719709680    1.928006886349   -1.620038944856
 H   -4.847664907167    1.119567359825   -2.217131642167
 H   -5.168533757243    1.712717312709   -0.547533167870
 H   -6.368312782569    2.005335513050   -1.854189461451
 C   -1.577734493014    5.300138017735   -2.060046277777
 H   -1.204687021280    5.263786828022   -1.023873652565
 H   -0.922209093966    4.699517854913   -2.710327871638
 H   -1.591732023164    6.340709270279   -2.409369466856
