27

 P    3.036846804395   -3.197418013596    1.620757109111
 O    2.234356804395   -2.232188013596    2.517377109111
 O    2.721486804395   -3.001938013596    0.123797109111
 O    4.666166804395   -3.147228013596    1.932337109111
 O    2.886246804395   -4.777418013596    2.104657109111
 C    5.252846804395   -1.879708013596    1.595557109111
 H    4.801796804395   -1.071268013596    2.192647109111
 H    5.122656804395   -1.664418013596    0.523047109111
 H    6.322436804395   -1.957028013596    1.829707109111
 C    1.531866804395   -5.251838013596    2.035567109111
 H    1.158816804395   -5.215488013596    0.999397109111
 H    0.876336804395   -4.651218013596    2.685847109111
 H    1.545866804395   -6.292408013596    2.384897109111
LI    1.408806804395   -1.483298013596    0.751877109111
 P   -3.115923313288    3.280669941321   -1.662957602967
 O   -4.745239473789    3.230483643582   -1.974538001340
 O   -2.965314333702    4.860670010391   -2.146858441060
 O   -2.313430230071    2.315443147037   -2.559576805910
 O   -2.800562171815    3.085192329859   -0.166003723796
 C   -5.331921463267    1.962964129328   -1.637758619838
 H   -4.880866660754    1.154524602803   -2.234851317149
 H   -5.201735510830    1.747674555687   -0.565252842851
 H   -6.401514536156    2.040292756029   -1.871909136433
 C   -1.610936246602    5.335095260714   -2.077765952758
 H   -1.237888774867    5.298744071000   -1.041593327546
 H   -0.955410847553    4.734475097892   -2.728047546620
 H   -1.624933776751    6.375666513258   -2.427089141837
