27

 P    3.099721300583   -3.263616897779    1.654313036636
 O    2.297231300583   -2.298386897779    2.550933036636
 O    2.784361300583   -3.068136897779    0.157353036636
 O    4.729041300583   -3.213426897779    1.965893036636
 O    2.949121300583   -4.843616897779    2.138213036636
 C    5.315721300583   -1.945906897779    1.629113036636
 H    4.864671300583   -1.137466897779    2.226203036636
 H    5.185531300583   -1.730616897779    0.556603036636
 H    6.385311300583   -2.023226897779    1.863263036636
 C    1.594741300583   -5.318036897779    2.069123036636
 H    1.221691300583   -5.281686897779    1.032953036636
 H    0.939211300583   -4.717416897779    2.719403036636
 H    1.608741300583   -6.358606897779    2.418453036636
LI    1.471681300583   -1.549496897779    0.785433036636
 P   -3.182326820462    3.350584427278   -1.698396952930
 O   -4.811642980963    3.300398129539   -2.009977351303
 O   -3.031717840876    4.930584496348   -2.182297791023
 O   -2.379833737245    2.385357632994   -2.595016155873
 O   -2.866965678990    3.155106815816   -0.201443073759
 C   -5.398324970441    2.032878615285   -1.673197969800
 H   -4.947270167928    1.224439088760   -2.270290667112
 H   -5.268139018004    1.817589041644   -0.600692192814
 H   -6.467918043330    2.110207241985   -1.907348486396
 C   -1.677339753776    5.405009746671   -2.113205302721
 H   -1.304292282041    5.368658556957   -1.077032677509
 H   -1.021814354728    4.804389583849   -2.763486896583
 H   -1.691337283925    6.445580999215   -2.462528491800
