27

 P    3.162595796772   -3.329815781963    1.687868964162
 O    2.360105796772   -2.364585781963    2.584488964162
 O    2.847235796772   -3.134335781963    0.190908964162
 O    4.791915796772   -3.279625781963    1.999448964162
 O    3.011995796772   -4.909815781963    2.171768964162
 C    5.378595796772   -2.012105781963    1.662668964162
 H    4.927545796772   -1.203665781963    2.259758964162
 H    5.248405796772   -1.796815781963    0.590158964162
 H    6.448185796772   -2.089425781963    1.896818964162
 C    1.657615796772   -5.384235781963    2.102678964162
 H    1.284565796772   -5.347885781963    1.066508964162
 H    1.002085796772   -4.783615781963    2.752958964162
 H    1.671615796772   -6.424805781963    2.452008964162
LI    1.534555796772   -1.615695781963    0.818988964162
 P   -3.248730327636    3.420498913235   -1.733836302893
 O   -4.878046488137    3.370312615496   -2.045416701265
 O   -3.098121348050    5.000498982305   -2.217737140985
 O   -2.446237244419    2.455272118951   -2.630455505836
 O   -2.933369186164    3.225021301773   -0.236882423721
 C   -5.464728477615    2.102793101242   -1.708637319763
 H   -5.013673675102    1.294353574717   -2.305730017074
 H   -5.334542525178    1.887503527601   -0.636131542777
 H   -6.534321550504    2.180121727942   -1.942787836358
 C   -1.743743260950    5.474924232627   -2.148644652684
 H   -1.370695789215    5.438573042914   -1.112472027472
 H   -1.088217861902    4.874304069806   -2.798926246545
 H   -1.757740791099    6.515495485172   -2.497967841763
