27

 P    3.256907541054   -3.429114108238    1.738202855449
 O    2.454417541054   -2.463884108238    2.634822855449
 O    2.941547541054   -3.233634108238    0.241242855449
 O    4.886227541054   -3.378924108238    2.049782855449
 O    3.106307541054   -5.009114108238    2.222102855449
 C    5.472907541054   -2.111404108238    1.713002855449
 H    5.021857541054   -1.302964108238    2.310092855449
 H    5.342717541054   -1.896114108238    0.640492855449
 H    6.542497541054   -2.188724108238    1.947152855449
 C    1.751927541054   -5.483534108238    2.153012855449
 H    1.378877541054   -5.447184108238    1.116842855449
 H    1.096397541054   -4.882914108238    2.803292855449
 H    1.765927541054   -6.524104108238    2.502342855449
LI    1.628867541054   -1.714994108238    0.869322855449
 P   -3.348335588397    3.525370642170   -1.786995327837
 O   -4.977651748898    3.475184344432   -2.098575726210
 O   -3.197726608811    5.105370711240   -2.270896165930
 O   -2.545842505180    2.560143847887   -2.683614530780
 O   -3.032974446925    3.329893030709   -0.290041448666
 C   -5.564333738377    2.207664830177   -1.761796344707
 H   -5.113278935864    1.399225303652   -2.358889042019
 H   -5.434147785939    1.992375256537   -0.689290567721
 H   -6.633926811265    2.284993456878   -1.995946861303
 C   -1.843348521711    5.579795961563   -2.201803677628
 H   -1.470301049976    5.543444771850   -1.165631052416
 H   -1.187823122663    4.979175798741   -2.852085271490
 H   -1.857346051860    6.620367214107   -2.551126866707
