27

 P    3.351219285336   -3.528412434514    1.788536746737
 O    2.548729285336   -2.563182434514    2.685156746737
 O    3.035859285336   -3.332932434514    0.291576746737
 O    4.980539285336   -3.478222434514    2.100116746737
 O    3.200619285336   -5.108412434514    2.272436746737
 C    5.567219285336   -2.210702434514    1.763336746737
 H    5.116169285336   -1.402262434514    2.360426746737
 H    5.437029285336   -1.995412434514    0.690826746737
 H    6.636809285336   -2.288022434514    1.997486746737
 C    1.846239285336   -5.582832434514    2.203346746737
 H    1.473189285336   -5.546482434514    1.167176746737
 H    1.190709285336   -4.982212434514    2.853626746737
 H    1.860239285336   -6.623402434514    2.552676746737
LI    1.723179285336   -1.814292434514    0.919656746737
 P   -3.447940849158    3.630242371106   -1.840154352781
 O   -5.077257009659    3.580056073367   -2.151734751154
 O   -3.297331869572    5.210242440176   -2.324055190874
 O   -2.645447765941    2.665015576822   -2.736773555724
 O   -3.132579707686    3.434764759644   -0.343200473610
 C   -5.663938999138    2.312536559112   -1.814955369652
 H   -5.212884196625    1.504097032588   -2.412048066963
 H   -5.533753046700    2.097246985472   -0.742449592665
 H   -6.733532072026    2.389865185813   -2.049105886247
 C   -1.942953782472    5.684667690498   -2.254962702572
 H   -1.569906310737    5.648316500785   -1.218790077360
 H   -1.287428383424    5.084047527676   -2.905244296434
 H   -1.956951312621    6.725238943043   -2.604285891651
