27

 P    3.414093781525   -3.594611318697    1.822092674262
 O    2.611603781525   -2.629381318697    2.718712674262
 O    3.098733781525   -3.399131318697    0.325132674262
 O    5.043413781525   -3.544421318697    2.133672674262
 O    3.263493781525   -5.174611318697    2.305992674262
 C    5.630093781525   -2.276901318697    1.796892674262
 H    5.179043781525   -1.468461318697    2.393982674262
 H    5.499903781525   -2.061611318697    0.724382674262
 H    6.699683781525   -2.354221318697    2.031042674262
 C    1.909113781525   -5.649031318697    2.236902674262
 H    1.536063781525   -5.612681318697    1.200732674262
 H    1.253583781525   -5.048411318697    2.887182674262
 H    1.923113781525   -6.689601318697    2.586232674262
LI    1.786053781525   -1.880491318697    0.953212674262
 P   -3.514344356333    3.700156857062   -1.875593702744
 O   -5.143660516833    3.649970559324   -2.187174101117
 O   -3.363735376746    5.280156926133   -2.359494540837
 O   -2.711851273115    2.734930062779   -2.772212905687
 O   -3.198983214860    3.504679245601   -0.378639823573
 C   -5.730342506312    2.382451045069   -1.850394719614
 H   -5.279287703799    1.574011518544   -2.447487416926
 H   -5.600156553875    2.167161471429   -0.777888942628
 H   -6.799935579200    2.459779671770   -2.084545236210
 C   -2.009357289646    5.754582176455   -2.290402052535
 H   -1.636309817911    5.718230986742   -1.254229427323
 H   -1.353831890598    5.153962013633   -2.940683646397
 H   -2.023354819795    6.795153428999   -2.639725241614
