27

 P    3.445531029619   -3.627710760789    1.838870638025
 O    2.643041029619   -2.662480760789    2.735490638025
 O    3.130171029619   -3.432230760789    0.341910638025
 O    5.074851029619   -3.577520760789    2.150450638025
 O    3.294931029619   -5.207710760789    2.322770638025
 C    5.661531029619   -2.310000760789    1.813670638025
 H    5.210481029619   -1.501560760789    2.410760638025
 H    5.531341029619   -2.094710760789    0.741160638025
 H    6.731121029619   -2.387320760789    2.047820638025
 C    1.940551029619   -5.682130760789    2.253680638025
 H    1.567501029619   -5.645780760789    1.217510638025
 H    1.285021029619   -5.081510760789    2.903960638025
 H    1.954551029619   -6.722700760789    2.603010638025
LI    1.817491029619   -1.913590760789    0.969990638025
 P   -3.547546109920    3.735114100041   -1.893313377726
 O   -5.176862270420    3.684927802302   -2.204893776098
 O   -3.396937130333    5.315114169111   -2.377214215818
 O   -2.745053026703    2.769887305757   -2.789932580668
 O   -3.232184968447    3.539636488579   -0.396359498554
 C   -5.763544259899    2.417408288048   -1.868114394596
 H   -5.312489457386    1.608968761523   -2.465207091907
 H   -5.633358307462    2.202118714407   -0.795608617609
 H   -6.833137332787    2.494736914749   -2.102264911191
 C   -2.042559043233    5.789539419434   -2.308121727517
 H   -1.669511571498    5.753188229720   -1.271949102305
 H   -1.387033644185    5.188919256612   -2.958403321378
 H   -2.056556573382    6.830110671978   -2.657444916595
