27

 P    3.476968277713   -3.660810202881    1.855648601787
 O    2.674478277713   -2.695580202881    2.752268601787
 O    3.161608277713   -3.465330202881    0.358688601787
 O    5.106288277713   -3.610620202881    2.167228601787
 O    3.326368277713   -5.240810202881    2.339548601787
 C    5.692968277713   -2.343100202881    1.830448601787
 H    5.241918277713   -1.534660202881    2.427538601787
 H    5.562778277713   -2.127810202881    0.757938601787
 H    6.762558277713   -2.420420202881    2.064598601787
 C    1.971988277713   -5.715230202881    2.270458601787
 H    1.598938277713   -5.678880202881    1.234288601787
 H    1.316458277713   -5.114610202881    2.920738601787
 H    1.985988277713   -6.755800202881    2.619788601787
LI    1.848928277713   -1.946690202881    0.986768601787
 P   -3.580747863507    3.770071343019   -1.911033052707
 O   -5.210064024008    3.719885045281   -2.222613451080
 O   -3.430138883920    5.350071412089   -2.394933890799
 O   -2.778254780290    2.804844548736   -2.807652255650
 O   -3.265386722034    3.574593731558   -0.414079173536
 C   -5.796746013486    2.452365531026   -1.885834069577
 H   -5.345691210973    1.643926004501   -2.482926766888
 H   -5.666560061049    2.237075957386   -0.813328292591
 H   -6.866339086374    2.529694157727   -2.119984586172
 C   -2.075760796820    5.824496662412   -2.325841402498
 H   -1.702713325085    5.788145472699   -1.289668777286
 H   -1.420235397772    5.223876499590   -2.976122996359
 H   -2.089758326970    6.865067914956   -2.675164591577
