27

 P    3.539842773901   -3.727009087064    1.889204529312
 O    2.737352773901   -2.761779087064    2.785824529312
 O    3.224482773901   -3.531529087064    0.392244529312
 O    5.169162773901   -3.676819087064    2.200784529312
 O    3.389242773901   -5.307009087064    2.373104529312
 C    5.755842773901   -2.409299087064    1.864004529312
 H    5.304792773901   -1.600859087064    2.461094529312
 H    5.625652773901   -2.194009087064    0.791494529312
 H    6.825432773901   -2.486619087064    2.098154529312
 C    2.034862773901   -5.781429087064    2.304014529312
 H    1.661812773901   -5.745079087064    1.267844529312
 H    1.379332773901   -5.180809087064    2.954294529312
 H    2.048862773901   -6.821999087064    2.653344529312
LI    1.911802773901   -2.012889087064    1.020324529312
 P   -3.647151370681    3.839985828976   -1.946472402670
 O   -5.276467531182    3.789799531238   -2.258052801042
 O   -3.496542391094    5.419985898046   -2.430373240762
 O   -2.844658287464    2.874759034693   -2.843091605613
 O   -3.331790229208    3.644508217515   -0.449518523498
 C   -5.863149520660    2.522280016983   -1.921273419540
 H   -5.412094718147    1.713840490458   -2.518366116851
 H   -5.732963568223    2.306990443343   -0.848767642553
 H   -6.932742593548    2.599608643684   -2.155423936135
 C   -2.142164303994    5.894411148369   -2.361280752461
 H   -1.769116832260    5.858059958656   -1.325108127249
 H   -1.486638904946    5.293790985547   -3.011562346322
 H   -2.156161834144    6.934982400913   -2.710603941539
