27

 P    3.571280021995   -3.760108529156    1.905982493075
 O    2.768790021995   -2.794878529156    2.802602493075
 O    3.255920021995   -3.564628529156    0.409022493075
 O    5.200600021995   -3.709918529156    2.217562493075
 O    3.420680021995   -5.340108529156    2.389882493075
 C    5.787280021995   -2.442398529156    1.880782493075
 H    5.336230021995   -1.633958529156    2.477872493075
 H    5.657090021995   -2.227108529156    0.808272493075
 H    6.856870021995   -2.519718529156    2.114932493075
 C    2.066300021995   -5.814528529156    2.320792493075
 H    1.693250021995   -5.778178529156    1.284622493075
 H    1.410770021995   -5.213908529156    2.971072493075
 H    2.080300021995   -6.855098529156    2.670122493075
LI    1.943240021995   -2.045988529156    1.037102493075
 P   -3.680353124268    3.874943071955   -1.964192077651
 O   -5.309669284769    3.824756774216   -2.275772476024
 O   -3.529744144682    5.454943141025   -2.448092915744
 O   -2.877860041051    2.909716277671   -2.860811280594
 O   -3.364991982795    3.679465460493   -0.467238198480
 C   -5.896351274247    2.557237259962   -1.938993094521
 H   -5.445296471734    1.748797733437   -2.536085791833
 H   -5.766165321810    2.341947686321   -0.866487317535
 H   -6.965944347136    2.634565886662   -2.173143611117
 C   -2.175366057581    5.929368391347   -2.379000427442
 H   -1.802318585847    5.893017201634   -1.342827802230
 H   -1.519840658533    5.328748228526   -3.029282021304
 H   -2.189363587731    6.969939643892   -2.728323616521
