27

 P    3.665591766278   -3.859406855431    1.956316384363
 O    2.863101766278   -2.894176855431    2.852936384363
 O    3.350231766278   -3.663926855431    0.459356384363
 O    5.294911766278   -3.809216855431    2.267896384363
 O    3.514991766278   -5.439406855431    2.440216384363
 C    5.881591766278   -2.541696855431    1.931116384363
 H    5.430541766278   -1.733256855431    2.528206384363
 H    5.751401766278   -2.326406855431    0.858606384363
 H    6.951181766278   -2.619016855431    2.165266384363
 C    2.160611766278   -5.913826855431    2.371126384363
 H    1.787561766278   -5.877476855431    1.334956384363
 H    1.505081766278   -5.313206855431    3.021406384363
 H    2.174611766278   -6.954396855431    2.720456384363
LI    2.037551766278   -2.145286855431    1.087436384363
 P   -3.779958385029    3.979814800890   -2.017351102595
 O   -5.409274545530    3.929628503152   -2.328931500968
 O   -3.629349405443    5.559814869960   -2.501251940688
 O   -2.977465301812    3.014588006606   -2.913970305538
 O   -3.464597243557    3.784337189428   -0.520397223424
 C   -5.995956535008    2.662108988897   -1.992152119466
 H   -5.544901732495    1.853669462372   -2.589244816777
 H   -5.865770582571    2.446819415257   -0.919646342479
 H   -7.065549607897    2.739437615598   -2.226302636061
 C   -2.274971318343    6.034240120283   -2.432159452386
 H   -1.901923846608    5.997888930569   -1.395986827174
 H   -1.619445919295    5.433619957461   -3.082441046248
 H   -2.288968848492    7.074811372827   -2.781482641465
