27

 P    3.697029014372   -3.892506297523    1.973094348125
 O    2.894539014372   -2.927276297523    2.869714348125
 O    3.381669014372   -3.697026297523    0.476134348125
 O    5.326349014372   -3.842316297523    2.284674348125
 O    3.546429014372   -5.472506297523    2.456994348125
 C    5.913029014372   -2.574796297523    1.947894348125
 H    5.461979014372   -1.766356297523    2.544984348125
 H    5.782839014372   -2.359506297523    0.875384348125
 H    6.982619014372   -2.652116297523    2.182044348125
 C    2.192049014372   -5.946926297523    2.387904348125
 H    1.818999014372   -5.910576297523    1.351734348125
 H    1.536519014372   -5.346306297523    3.038184348125
 H    2.206049014372   -6.987496297523    2.737234348125
LI    2.068989014372   -2.178386297523    1.104214348125
 P   -3.813160138616    4.014772043869   -2.035070777577
 O   -5.442476299117    3.964585746130   -2.346651175949
 O   -3.662551159030    5.594772112939   -2.518971615669
 O   -3.010667055399    3.049545249585   -2.931689980520
 O   -3.497798997144    3.819294432407   -0.538116898405
 C   -6.029158288595    2.697066231875   -2.009871794447
 H   -5.578103486082    1.888626705351   -2.606964491758
 H   -5.898972336158    2.481776658235   -0.937366017460
 H   -7.098751361484    2.774394858576   -2.244022311042
 C   -2.308173071930    6.069197363261   -2.449879127368
 H   -1.935125600195    6.032846173548   -1.413706502156
 H   -1.652647672882    5.468577200439   -3.100160721229
 H   -2.322170602079    7.109768615806   -2.799202316446
