27

 P    3.885652502937   -4.091102950074    2.073762130701
 O    3.083162502937   -3.125872950074    2.970382130701
 O    3.570292502937   -3.895622950074    0.576802130701
 O    5.514972502937   -4.040912950074    2.385342130701
 O    3.735052502937   -5.671102950074    2.557662130701
 C    6.101652502937   -2.773392950074    2.048562130701
 H    5.650602502937   -1.964952950074    2.645652130701
 H    5.971462502937   -2.558102950074    0.976052130701
 H    7.171242502937   -2.850712950074    2.282712130701
 C    2.380672502937   -6.145522950074    2.488572130701
 H    2.007622502937   -6.109172950074    1.452402130701
 H    1.725142502937   -5.544902950074    3.138852130701
 H    2.394672502937   -7.186092950074    2.837902130701
LI    2.257612502937   -2.376982950074    1.204882130701
 P   -4.012370660138    4.224515501739   -2.141388827465
 O   -5.641686820639    4.174329204001   -2.452969225838
 O   -3.861761680552    5.804515570809   -2.625289665558
 O   -3.209877576921    3.259288707456   -3.038008030408
 O   -3.697009518666    4.029037890278   -0.644434948294
 C   -6.228368810118    2.906809689746   -2.116189844336
 H   -5.777314007605    2.098370163221   -2.713282541647
 H   -6.098182857680    2.691520116106   -1.043684067349
 H   -7.297961883006    2.984138316447   -2.350340360931
 C   -2.507383593452    6.278940821132   -2.556197177256
 H   -2.134336121717    6.242589631419   -1.520024552044
 H   -1.851858194404    5.678320658310   -3.206478771118
 H   -2.521381123601    7.319512073676   -2.905520366335
