10

 C    0.619624325420    0.986614393710    0.112156503836
 H    1.013111325420    1.999743393710    0.112376503836
 C    1.231657325420   -0.263493606290    0.112192503836
 H    2.297364325420   -0.482220606290    0.112098503836
 N   -0.735463674580    0.717646393710    0.112144503836
 H   -1.480397674580    1.404296393710    0.112398503836
 C   -0.893269674580   -0.646393606290    0.112199503836
 H   -1.870893674580   -1.122409606290    0.112073503836
 N    0.285646325420   -1.272988606290    0.112188503836
LI   -0.734917399980    0.718682931069   -1.087854924153
