10

 C    0.619620069937    0.986606319076    0.121504508418
 H    1.013107069937    1.999735319076    0.121724508418
 C    1.231653069937   -0.263501680924    0.121540508418
 H    2.297360069937   -0.482228680924    0.121446508418
 N   -0.735467930063    0.717638319076    0.121492508418
 H   -1.480401930063    1.404288319076    0.121746508418
 C   -0.893273930063   -0.646401680924    0.121547508418
 H   -1.870897930063   -1.122417680924    0.121421508418
 N    0.285642069937   -1.272996680924    0.121536508418
LI   -0.734876132580    0.718761234548   -1.178506871903
