10

 C    0.619607303487    0.986582095175    0.149548522165
 H    1.013094303487    1.999711095175    0.149768522165
 C    1.231640303487   -0.263525904825    0.149584522165
 H    2.297347303487   -0.482252904825    0.149490522165
 N   -0.735480696513    0.717614095175    0.149536522165
 H   -1.480414696513    1.404264095175    0.149790522165
 C   -0.893286696513   -0.646425904825    0.149591522165
 H   -1.870910696513   -1.122441904825    0.149465522165
 N    0.285629303487   -1.273020904825    0.149580522165
LI   -0.734752330380    0.718996144986   -1.450462715154
