10

 C    0.619590281554    0.986549796640    0.186940540493
 H    1.013077281554    1.999678796640    0.187160540493
 C    1.231623281554   -0.263558203360    0.186976540493
 H    2.297330281554   -0.482285203360    0.186882540493
 N   -0.735497718446    0.717581796640    0.186928540493
 H   -1.480431718446    1.404231796640    0.187182540493
 C   -0.893303718446   -0.646458203360    0.186983540493
 H   -1.870927718446   -1.122474203360    0.186857540493
 N    0.285612281554   -1.273053203360    0.186972540493
LI   -0.734587260780    0.719309358904   -1.813070506155
