10

 C    0.619586026071    0.986541722006    0.196288545076
 H    1.013073026071    1.999670722006    0.196508545076
 C    1.231619026071   -0.263566277994    0.196324545076
 H    2.297326026071   -0.482293277994    0.196230545076
 N   -0.735501973929    0.717573722006    0.196276545076
 H   -1.480435973929    1.404223722006    0.196530545076
 C   -0.893307973929   -0.646466277994    0.196331545076
 H   -1.870931973929   -1.122482277994    0.196205545076
 N    0.285608026071   -1.273061277994    0.196320545076
LI   -0.734545993380    0.719387662383   -1.903722453906
