10

 C    0.619573259621    0.986517498104    0.224332558822
 H    1.013060259621    1.999646498104    0.224552558822
 C    1.231606259621   -0.263590501896    0.224368558822
 H    2.297313259621   -0.482317501896    0.224274558822
 N   -0.735514740379    0.717549498104    0.224320558822
 H   -1.480448740379    1.404199498104    0.224574558822
 C   -0.893320740379   -0.646490501896    0.224375558822
 H   -1.870944740379   -1.122506501896    0.224249558822
 N    0.285595259621   -1.273085501896    0.224364558822
LI   -0.734422191180    0.719622572821   -2.175678297156
