10

 C    0.619569004138    0.986509423470    0.233680563404
 H    1.013056004138    1.999638423470    0.233900563404
 C    1.231602004138   -0.263598576530    0.233716563404
 H    2.297309004138   -0.482325576530    0.233622563404
 N   -0.735518995862    0.717541423470    0.233668563404
 H   -1.480452995862    1.404191423470    0.233922563404
 C   -0.893324995862   -0.646498576530    0.233723563404
 H   -1.870948995862   -1.122514576530    0.233597563404
 N    0.285591004138   -1.273093576530    0.233712563404
LI   -0.734380923780    0.719700876301   -2.266330244907
