10

 C    0.619551982205    0.986477124935    0.271072581733
 H    1.013038982205    1.999606124935    0.271292581733
 C    1.231584982205   -0.263630875065    0.271108581733
 H    2.297291982205   -0.482357875065    0.271014581733
 N   -0.735536017795    0.717509124935    0.271060581733
 H   -1.480470017795    1.404159124935    0.271314581733
 C   -0.893342017795   -0.646530875065    0.271115581733
 H   -1.870966017795   -1.122546875065    0.270989581733
 N    0.285573982205   -1.273125875065    0.271104581733
LI   -0.734215854180    0.720014090218   -2.628938035908
