10

 C    0.619547726722    0.986469050301    0.280420586315
 H    1.013034726722    1.999598050301    0.280640586315
 C    1.231580726722   -0.263638949699    0.280456586315
 H    2.297287726722   -0.482365949699    0.280362586315
 N   -0.735540273278    0.717501050301    0.280408586315
 H   -1.480474273278    1.404151050301    0.280662586315
 C   -0.893346273278   -0.646538949699    0.280463586315
 H   -1.870970273278   -1.122554949699    0.280337586315
 N    0.285569726722   -1.273133949699    0.280452586315
LI   -0.734174586780    0.720092393698   -2.719589983658
