10

 C    0.619539215755    0.986452901034    0.299116595479
 H    1.013026215755    1.999581901034    0.299336595479
 C    1.231572215755   -0.263655098966    0.299152595479
 H    2.297279215755   -0.482382098966    0.299058595479
 N   -0.735548784245    0.717484901034    0.299104595479
 H   -1.480482784245    1.404134901034    0.299358595479
 C   -0.893354784245   -0.646555098966    0.299159595479
 H   -1.870978784245   -1.122571098966    0.299033595479
 N    0.285561215755   -1.273150098966    0.299148595479
LI   -0.734092051980    0.720249000656   -2.900893879159
