10

 C    0.619534960272    0.986444826400    0.308464600061
 H    1.013021960272    1.999573826400    0.308684600061
 C    1.231567960272   -0.263663173600    0.308500600061
 H    2.297274960272   -0.482390173600    0.308406600061
 N   -0.735553039728    0.717476826400    0.308452600061
 H   -1.480487039728    1.404126826400    0.308706600061
 C   -0.893359039728   -0.646563173600    0.308507600061
 H   -1.870983039728   -1.122579173600    0.308381600061
 N    0.285556960272   -1.273158173600    0.308496600061
LI   -0.734050784579    0.720327304136   -2.991545826909
