10

 C    0.619526449305    0.986428677132    0.327160609226
 H    1.013013449305    1.999557677132    0.327380609226
 C    1.231559449305   -0.263679322868    0.327196609226
 H    2.297266449305   -0.482406322868    0.327102609226
 N   -0.735561550695    0.717460677132    0.327148609226
 H   -1.480495550695    1.404110677132    0.327402609226
 C   -0.893367550695   -0.646579322868    0.327203609226
 H   -1.870991550695   -1.122595322868    0.327077609226
 N    0.285548449305   -1.273174322868    0.327192609226
LI   -0.733968249779    0.720483911095   -3.172849722409
