10

 C    0.619517938339    0.986412527865    0.345856618390
 H    1.013004938339    1.999541527865    0.346076618390
 C    1.231550938339   -0.263695472135    0.345892618390
 H    2.297257938339   -0.482422472135    0.345798618390
 N   -0.735570061661    0.717444527865    0.345844618390
 H   -1.480504061661    1.404094527865    0.346098618390
 C   -0.893376061661   -0.646595472135    0.345899618390
 H   -1.871000061661   -1.122611472135    0.345773618390
 N    0.285539938339   -1.273190472135    0.345888618390
LI   -0.733885714979    0.720640518053   -3.354153617910
