10

 C    0.619500916406    0.986380229329    0.383248636719
 H    1.012987916406    1.999509229329    0.383468636719
 C    1.231533916406   -0.263727770671    0.383284636719
 H    2.297240916406   -0.482454770671    0.383190636719
 N   -0.735587083594    0.717412229329    0.383236636719
 H   -1.480521083594    1.404062229329    0.383490636719
 C   -0.893393083594   -0.646627770671    0.383291636719
 H   -1.871017083594   -1.122643770671    0.383165636719
 N    0.285522916406   -1.273222770671    0.383280636719
LI   -0.733720645379    0.720953731971   -3.716761408911
