10

 C    0.619488149956    0.986356005428    0.411292650465
 H    1.012975149956    1.999485005428    0.411512650465
 C    1.231521149956   -0.263751994572    0.411328650465
 H    2.297228149956   -0.482478994572    0.411234650465
 N   -0.735599850044    0.717388005428    0.411280650465
 H   -1.480533850044    1.404038005428    0.411534650465
 C   -0.893405850044   -0.646651994572    0.411335650465
 H   -1.871029850044   -1.122667994572    0.411209650465
 N    0.285510149956   -1.273246994572    0.411324650465
LI   -0.733596843179    0.721188642409   -3.988717252162
