10

 C    0.619479638990    0.986339856160    0.429988659630
 H    1.012966638990    1.999468856160    0.430208659630
 C    1.231512638990   -0.263768143840    0.430024659630
 H    2.297219638990   -0.482495143840    0.429930659630
 N   -0.735608361010    0.717371856160    0.429976659630
 H   -1.480542361010    1.404021856160    0.430230659630
 C   -0.893414361010   -0.646668143840    0.430031659630
 H   -1.871038361010   -1.122684143840    0.429905659630
 N    0.285501638990   -1.273263143840    0.430020659630
LI   -0.733514308379    0.721345249368   -4.170021147662
