10

 C    0.619466872540    0.986315632259    0.458032673376
 H    1.012953872540    1.999444632259    0.458252673376
 C    1.231499872540   -0.263792367741    0.458068673376
 H    2.297206872540   -0.482519367741    0.457974673376
 N   -0.735621127460    0.717347632259    0.458020673376
 H   -1.480555127460    1.403997632259    0.458274673376
 C   -0.893427127460   -0.646692367741    0.458075673376
 H   -1.871051127460   -1.122708367741    0.457949673376
 N    0.285488872540   -1.273287367741    0.458064673376
LI   -0.733390506179    0.721580159806   -4.441976990913
