10

 C    0.619462617057    0.986307557625    0.467380677958
 H    1.012949617057    1.999436557625    0.467600677958
 C    1.231495617057   -0.263800442375    0.467416677958
 H    2.297202617057   -0.482527442375    0.467322677958
 N   -0.735625382943    0.717339557625    0.467368677958
 H   -1.480559382943    1.403989557625    0.467622677958
 C   -0.893431382943   -0.646700442375    0.467423677958
 H   -1.871055382943   -1.122716442375    0.467297677958
 N    0.285484617057   -1.273295442375    0.467412677958
LI   -0.733349238779    0.721658463285   -4.532628938663
