10

 C    0.619454106090    0.986291408357    0.486076687122
 H    1.012941106090    1.999420408357    0.486296687122
 C    1.231487106090   -0.263816591643    0.486112687122
 H    2.297194106090   -0.482543591643    0.486018687122
 N   -0.735633893910    0.717323408357    0.486064687122
 H   -1.480567893910    1.403973408357    0.486318687122
 C   -0.893439893910   -0.646716591643    0.486119687122
 H   -1.871063893910   -1.122732591643    0.485993687122
 N    0.285476106090   -1.273311591643    0.486108687122
LI   -0.733266703979    0.721815070244   -4.713932834164
