10

 C    0.619432828674    0.986251035188    0.532816710033
 H    1.012919828674    1.999380035188    0.533036710033
 C    1.231465828674   -0.263856964812    0.532852710033
 H    2.297172828674   -0.482583964812    0.532758710033
 N   -0.735655171326    0.717283035188    0.532804710033
 H   -1.480589171326    1.403933035188    0.533058710033
 C   -0.893461171326   -0.646756964812    0.532859710033
 H   -1.871085171326   -1.122772964812    0.532733710033
 N    0.285454828674   -1.273351964812    0.532848710033
LI   -0.733060366978    0.722206587641   -5.167192572915
