10

 C    0.619424317707    0.986234885920    0.551512719198
 H    1.012911317707    1.999363885920    0.551732719198
 C    1.231457317707   -0.263873114080    0.551548719198
 H    2.297164317707   -0.482600114080    0.551454719198
 N   -0.735663682293    0.717266885920    0.551500719198
 H   -1.480597682293    1.403916885920    0.551754719198
 C   -0.893469682293   -0.646773114080    0.551555719198
 H   -1.871093682293   -1.122789114080    0.551429719198
 N    0.285446317707   -1.273368114080    0.551544719198
LI   -0.732977832178    0.722363194600   -5.348496468416
