10

 C    0.619420062224    0.986226811286    0.560860723780
 H    1.012907062224    1.999355811286    0.561080723780
 C    1.231453062224   -0.263881188714    0.560896723780
 H    2.297160062224   -0.482608188714    0.560802723780
 N   -0.735667937776    0.717258811286    0.560848723780
 H   -1.480601937776    1.403908811286    0.561102723780
 C   -0.893473937776   -0.646781188714    0.560903723780
 H   -1.871097937776   -1.122797188714    0.560777723780
 N    0.285442062224   -1.273376188714    0.560892723780
LI   -0.732936564778    0.722441498079   -5.439148416166
