10

 C    0.619411551258    0.986210662019    0.579556732944
 H    1.012898551258    1.999339662019    0.579776732944
 C    1.231444551258   -0.263897337981    0.579592732944
 H    2.297151551258   -0.482624337981    0.579498732944
 N   -0.735676448742    0.717242662019    0.579544732944
 H   -1.480610448742    1.403892662019    0.579798732944
 C   -0.893482448742   -0.646797337981    0.579599732944
 H   -1.871106448742   -1.122813337981    0.579473732944
 N    0.285433551258   -1.273392337981    0.579588732944
LI   -0.732854029978    0.722598105038   -5.620452311667
