10

 C    0.619407295775    0.986202587385    0.588904737526
 H    1.012894295775    1.999331587385    0.589124737526
 C    1.231440295775   -0.263905412615    0.588940737526
 H    2.297147295775   -0.482632412615    0.588846737526
 N   -0.735680704225    0.717234587385    0.588892737526
 H   -1.480614704225    1.403884587385    0.589146737526
 C   -0.893486704225   -0.646805412615    0.588947737526
 H   -1.871110704225   -1.122821412615    0.588821737526
 N    0.285429295775   -1.273400412615    0.588936737526
LI   -0.732812762578    0.722676408517   -5.711104259417
