10

 C    0.619403040291    0.986194512751    0.598252742108
 H    1.012890040291    1.999323512751    0.598472742108
 C    1.231436040291   -0.263913487249    0.598288742108
 H    2.297143040291   -0.482640487249    0.598194742108
 N   -0.735684959709    0.717226512751    0.598240742108
 H   -1.480618959709    1.403876512751    0.598494742108
 C   -0.893490959709   -0.646813487249    0.598295742108
 H   -1.871114959709   -1.122829487249    0.598169742108
 N    0.285425040291   -1.273408487249    0.598284742108
LI   -0.732771495178    0.722754711997   -5.801756207167
