10

 C    0.619398784808    0.986186438117    0.607600746691
 H    1.012885784808    1.999315438117    0.607820746691
 C    1.231431784808   -0.263921561883    0.607636746691
 H    2.297138784808   -0.482648561883    0.607542746691
 N   -0.735689215192    0.717218438117    0.607588746691
 H   -1.480623215192    1.403868438117    0.607842746691
 C   -0.893495215192   -0.646821561883    0.607643746691
 H   -1.871119215192   -1.122837561883    0.607517746691
 N    0.285420784808   -1.273416561883    0.607632746691
LI   -0.732730227778    0.722833015476   -5.892408154918
