10

 C    0.619373251909    0.986137990314    0.663688774184
 H    1.012860251909    1.999266990314    0.663908774184
 C    1.231406251909   -0.263970009686    0.663724774184
 H    2.297113251909   -0.482697009686    0.663630774184
 N   -0.735714748091    0.717169990314    0.663676774184
 H   -1.480648748091    1.403819990314    0.663930774184
 C   -0.893520748091   -0.646870009686    0.663731774184
 H   -1.871144748091   -1.122886009686    0.663605774184
 N    0.285395251909   -1.273465009686    0.663720774184
LI   -0.732482623378    0.723302836352   -6.436319841419
