10

 C    0.619360485459    0.986113766413    0.691732787930
 H    1.012847485459    1.999242766413    0.691952787930
 C    1.231393485459   -0.263994233587    0.691768787930
 H    2.297100485459   -0.482721233587    0.691674787930
 N   -0.735727514541    0.717145766413    0.691720787930
 H   -1.480661514541    1.403795766413    0.691974787930
 C   -0.893533514541   -0.646894233587    0.691775787930
 H   -1.871157514541   -1.122910233587    0.691649787930
 N    0.285382485459   -1.273489233587    0.691764787930
LI   -0.732358821177    0.723537746790   -6.708275684670
