10

 C    0.619351974492    0.986097617145    0.710428797094
 H    1.012838974492    1.999226617145    0.710648797094
 C    1.231384974492   -0.264010382855    0.710464797094
 H    2.297091974492   -0.482737382855    0.710370797094
 N   -0.735736025508    0.717129617145    0.710416797094
 H   -1.480670025508    1.403779617145    0.710670797094
 C   -0.893542025508   -0.646910382855    0.710471797094
 H   -1.871166025508   -1.122926382855    0.710345797094
 N    0.285373974492   -1.273505382855    0.710460797094
LI   -0.732276286377    0.723694353749   -6.889579580171
