10

 C    0.619343463526    0.986081467878    0.729124806259
 H    1.012830463526    1.999210467878    0.729344806259
 C    1.231376463526   -0.264026532122    0.729160806259
 H    2.297083463526   -0.482753532122    0.729066806259
 N   -0.735744536474    0.717113467878    0.729112806259
 H   -1.480678536474    1.403763467878    0.729366806259
 C   -0.893550536474   -0.646926532122    0.729167806259
 H   -1.871174536474   -1.122942532122    0.729041806259
 N    0.285365463526   -1.273521532122    0.729156806259
LI   -0.732193751577    0.723850960708   -7.070883475671
