10

 C    0.619326441593    0.986049169342    0.766516824587
 H    1.012813441593    1.999178169342    0.766736824587
 C    1.231359441593   -0.264058830658    0.766552824587
 H    2.297066441593   -0.482785830658    0.766458824587
 N   -0.735761558407    0.717081169342    0.766504824587
 H   -1.480695558407    1.403731169342    0.766758824587
 C   -0.893567558407   -0.646958830658    0.766559824587
 H   -1.871191558407   -1.122974830658    0.766433824587
 N    0.285348441593   -1.273553830658    0.766548824587
LI   -0.732028681977    0.724164174625   -7.433491266672
