10

 C    0.619322186110    0.986041094708    0.775864829169
 H    1.012809186110    1.999170094708    0.776084829169
 C    1.231355186110   -0.264066905292    0.775900829169
 H    2.297062186110   -0.482793905292    0.775806829169
 N   -0.735765813890    0.717073094708    0.775852829169
 H   -1.480699813890    1.403723094708    0.776106829169
 C   -0.893571813890   -0.646966905292    0.775907829169
 H   -1.871195813890   -1.122982905292    0.775781829169
 N    0.285344186110   -1.273561905292    0.775896829169
LI   -0.731987414577    0.724242478105   -7.524143214422
