10

 C    0.619313675143    0.986024945441    0.794560838334
 H    1.012800675143    1.999153945441    0.794780838334
 C    1.231346675143   -0.264083054559    0.794596838334
 H    2.297053675143   -0.482810054559    0.794502838334
 N   -0.735774324857    0.717056945441    0.794548838334
 H   -1.480708324857    1.403706945441    0.794802838334
 C   -0.893580324857   -0.646983054559    0.794603838334
 H   -1.871204324857   -1.122999054559    0.794477838334
 N    0.285335675143   -1.273578054559    0.794592838334
LI   -0.731904879777    0.724399085064   -7.705447109923
