10

 C    0.619292397727    0.985984572272    0.841300861245
 H    1.012779397727    1.999113572272    0.841520861245
 C    1.231325397727   -0.264123427728    0.841336861245
 H    2.297032397727   -0.482850427728    0.841242861245
 N   -0.735795602273    0.717016572272    0.841288861245
 H   -1.480729602273    1.403666572272    0.841542861245
 C   -0.893601602273   -0.647023427728    0.841343861245
 H   -1.871225602273   -1.123039427728    0.841217861245
 N    0.285314397727   -1.273618427728    0.841332861245
LI   -0.731698542777    0.724790602460   -8.158706848674
