10

 C    0.619271120311    0.985944199102    0.888040884155
 H    1.012758120311    1.999073199102    0.888260884155
 C    1.231304120311   -0.264163800898    0.888076884155
 H    2.297011120311   -0.482890800898    0.887982884155
 N   -0.735816879689    0.716976199102    0.888028884155
 H   -1.480750879689    1.403626199102    0.888282884155
 C   -0.893622879689   -0.647063800898    0.888083884155
 H   -1.871246879689   -1.123079800898    0.887957884155
 N    0.285293120311   -1.273658800898    0.888072884155
LI   -0.731492205776    0.725182119857   -8.611966587426
