10

 C    0.619262609344    0.985928049835    0.906736893320
 H    1.012749609344    1.999057049835    0.906956893320
 C    1.231295609344   -0.264179950165    0.906772893320
 H    2.297002609344   -0.482906950165    0.906678893320
 N   -0.735825390656    0.716960049835    0.906724893320
 H   -1.480759390656    1.403610049835    0.906978893320
 C   -0.893631390656   -0.647079950165    0.906779893320
 H   -1.871255390656   -1.123095950165    0.906653893320
 N    0.285284609344   -1.273674950165    0.906768893320
LI   -0.731409670976    0.725338726816   -8.793270482926
