10

 C    0.619258353861    0.985919975201    0.916084897902
 H    1.012745353861    1.999048975201    0.916304897902
 C    1.231291353861   -0.264188024799    0.916120897902
 H    2.296998353861   -0.482915024799    0.916026897902
 N   -0.735829646139    0.716951975201    0.916072897902
 H   -1.480763646139    1.403601975201    0.916326897902
 C   -0.893635646139   -0.647088024799    0.916127897902
 H   -1.871259646139   -1.123104024799    0.916001897902
 N    0.285280353861   -1.273683024799    0.916116897902
LI   -0.731368403576    0.725417030295   -8.883922430677
