16

 C    2.431732159352    1.423599625443    3.022283863434
 H    2.505192159352    0.627809625443    3.770243863434
 H    1.906802159352    2.274969625443    3.467473863434
 H    3.410462159352    1.703359625443    2.607913863434
 C    1.575492159352    0.890719625443    1.840213863434
 O    0.853182159352    1.719639625443    1.220453863434
 O    1.605882159352   -0.351840374557    1.609193863434
CS   -1.728777840648   -0.489310374557    0.708313863434
CS    0.881132159352    0.004369625443   -1.717446136566
 C    0.369968579087    0.202937753328    0.400189907448
 O    0.335583762409    1.447685591495    0.606757865665
 O    1.112420736266   -0.607143466905    1.025399119253
 C   -0.636363622115   -0.358478099713   -0.643159502280
 H   -0.948452436457   -1.365595212781   -0.347106614895
 H   -0.131204121095   -0.341412609037   -1.619018953050
 H   -1.510196292023    0.299530148062   -0.617672255283
