16

 C    2.487335214454    1.455322382445    3.088703282620
 H    2.560795214454    0.659532382445    3.836663282620
 H    1.962405214454    2.306692382445    3.533893282620
 H    3.466065214454    1.735082382445    2.674333282620
 C    1.631095214454    0.922442382445    1.906633282620
 O    0.908785214454    1.751362382445    1.286873282620
 O    1.661485214454   -0.320117617555    1.675613282620
CS   -1.673174785546   -0.457587617555    0.774733282620
CS    0.936735214454    0.036092382445   -1.651026717380
 C    0.063914560109    0.028325948696    0.034602139838
 O    0.029529743431    1.273073786862    0.241170098055
 O    0.806366717289   -0.781755271537    0.659811351643
 C   -0.942417641092   -0.533089904346   -1.008747269890
 H   -1.256843134584   -1.539005707955   -0.711087019448
 H   -0.436175049159   -0.518922971584   -1.984091699426
 H   -1.814956423138    0.126714954859   -0.985474743234
