16

 C    2.496602389763    1.460609507539    3.099773186917
 H    2.570062389763    0.664819507539    3.847733186917
 H    1.971672389763    2.311979507539    3.544963186917
 H    3.475332389763    1.740369507539    2.685403186917
 C    1.640362389763    0.927729507539    1.917703186917
 O    0.918052389763    1.756649507539    1.297943186917
 O    1.670752389763   -0.314830492461    1.686683186917
CS   -1.663907610237   -0.452300492461    0.785803186917
CS    0.946002389763    0.041379507539   -1.639956813083
 C    0.012905556405   -0.000776019816   -0.026329153664
 O   -0.021479260273    1.243971818351    0.180238804553
 O    0.755357713584   -0.810857240049    0.598880058140
 C   -0.993426644797   -0.562191872858   -1.069678563392
 H   -1.308251736233   -1.567901424635   -0.771743874465
 H   -0.486999438277   -0.548520826898   -2.044934225820
 H   -1.865743520730    0.097919590399   -1.046785050360
