16

 C    2.524403914722    1.476470880918    3.132982901766
 H    2.597863914722    0.680680880918    3.880942901766
 H    1.999473914722    2.327840880918    3.578172901766
 H    3.503133914722    1.756230880918    2.718612901766
 C    1.668163914722    0.943590880918    1.950912901766
 O    0.945853914722    1.772510880918    1.331152901766
 O    1.698553914722   -0.298969119082    1.719892901766
CS   -1.636106085278   -0.436439119082    0.819012901766
CS    0.973803914722    0.057240880918   -1.606747098234
 C   -0.140121455676   -0.088081927254   -0.209123032213
 O   -0.174506272354    1.156665910912   -0.002555073996
 O    0.602330701504   -0.898163147487    0.416086179591
 C   -1.146453656877   -0.649497780296   -1.252472441941
 H   -1.462495593548   -1.654577793170   -0.953702829052
 H   -0.639465357388   -0.637337158341   -2.227456546198
 H   -2.018093643638    0.011546200311   -1.230733580825
