16

 C    2.552205438185    1.492332251371    3.166192619633
 H    2.625665438185    0.696542251371    3.914152619633
 H    2.027275438185    2.343702251371    3.611382619633
 H    3.530935438185    1.772092251371    2.751822619633
 C    1.695965438185    0.959452251371    1.984122619633
 O    0.973655438185    1.788372251371    1.364362619633
 O    1.726355438185   -0.283107748629    1.753102619633
CS   -1.608304561815   -0.420577748629    0.852222619633
CS    1.001605438185    0.073102251371   -1.573537380367
 C   -0.293148469253   -0.175387837619   -0.391916907745
 O   -0.327533285931    1.069360000548   -0.185348949527
 O    0.449303687927   -0.985469057851    0.233292304060
 C   -1.299480670454   -0.736803690660   -1.435266317472
 H   -1.616767243938   -1.741237502033   -1.135643941042
 H   -0.791920162380   -0.726188554093   -2.409970718621
 H   -2.170426522197   -0.074807679429   -1.414709242146
