16

 C    2.626342826308    1.534629224209    3.254751882870
 H    2.699802826308    0.738839224209    4.002711882870
 H    2.101412826308    2.385999224209    3.699941882870
 H    3.605072826308    1.814389224209    2.840381882870
 C    1.770102826308    1.001749224209    2.072681882870
 O    1.047792826308    1.830669224209    1.452921882870
 O    1.800492826308   -0.240810775791    1.841661882870
CS   -1.534167173692   -0.378280775791    0.940781882870
CS    1.075742826308    0.115399224209   -1.484978117130
 C   -0.701220513236   -0.408203613627   -0.879367226902
 O   -0.735605329914    0.836544224540   -0.672799268685
 O    0.041231643943   -1.218284833860   -0.254158015097
 C   -1.707552714438   -0.969619466669   -1.922716636629
 H   -2.028301578180   -1.972243534011   -1.620728614362
 H   -1.198409500842   -0.963306517561   -2.896632626242
 H   -2.576558134348   -0.304984627491   -1.905451075007
