16

 C    2.719014543975    1.587500407063    3.365450996644
 H    2.792474543975    0.791710407063    4.113410996644
 H    2.194084543975    2.438870407063    3.810640996644
 H    3.697744543975    1.867260407063    2.951080996644
 C    1.862774543975    1.054620407063    2.183380996644
 O    1.140464543975    1.883540407063    1.563620996644
 O    1.893164543975   -0.187939592937    1.952360996644
CS   -1.441495456025   -0.325409592937    1.051480996644
CS    1.168414543975    0.168270407063   -1.374279003356
 C   -1.211310585702   -0.699223366830   -1.488680091121
 O   -1.245695402380    0.545524471336   -1.282112132904
 O   -0.468858428522   -1.509304587063   -0.863470879317
 C   -2.217642786903   -1.260639219872   -2.532029500849
 H   -2.543037385444   -2.260806809574   -2.226882376745
 H   -1.706396817920   -1.260105945472   -3.504863656765
 H   -3.084022508688   -0.592485561067   -2.519189921216
