16

 C    2.756083225027    1.608648869009    3.409730653978
 H    2.829543225027    0.812858869009    4.157690653978
 H    2.231153225027    2.460018869009    3.854920653978
 H    3.734813225027    1.888408869009    2.995360653978
 C    1.899843225027    1.075768869009    2.227660653978
 O    1.177533225027    1.904688869009    1.607900653978
 O    1.930233225027   -0.166791130991    1.996640653978
CS   -1.404426774973   -0.304261130991    1.095760653978
CS    1.205483225027    0.189418869009   -1.329999346022
 C   -1.415346620702   -0.815631279308   -1.732405224984
 O   -1.449731437380    0.429116558859   -1.525837266767
 O   -0.672894463523   -1.625712499540   -1.107196013179
 C   -2.421678821904   -1.377047132349   -2.775754634711
 H   -2.749039525022   -2.376165398103   -2.469275792552
 H   -1.909550188244   -1.378962257661   -3.748122679734
 H   -3.286939725709   -0.707411884718   -2.764791406373
