16

 C    2.793151902342    1.629797324110    3.454010318602
 H    2.866611902342    0.834007324110    4.201970318602
 H    2.268221902342    2.481167324110    3.899200318602
 H    3.771881902342    1.909557324110    3.039640318602
 C    1.936911902342    1.096917324110    2.271940318602
 O    1.214601902342    1.925837324110    1.652180318602
 O    1.967301902342   -0.145642675890    2.040920318602
CS   -1.367358097658   -0.283112675890    1.140040318602
CS    1.242551902342    0.210567324110   -1.285719681398
 C   -1.619382659441   -0.932039198629   -1.976130351558
 O   -1.653767476119    0.312708639538   -1.769562393341
 O   -0.876930502262   -1.742120418862   -1.350921139753
 C   -2.625714860642   -1.493455051671   -3.019479761285
 H   -2.955107889319   -2.491482562901   -2.711627622934
 H   -2.112678361167   -1.497902546977   -3.991360818870
 H   -3.489814502845   -0.822293068883   -3.010458114785
