16

 C    2.858022077967    1.666807103087    3.531499750413
 H    2.931482077967    0.871017103087    4.279459750413
 H    2.333092077967    2.518177103087    3.976689750413
 H    3.836752077967    1.946567103087    3.117129750413
 C    2.001782077967    1.133927103087    2.349429750413
 O    1.279472077967    1.962847103087    1.729669750413
 O    2.032172077967   -0.108632896913    2.118409750413
CS   -1.302487922033   -0.246102896913    1.217529750413
CS    1.307422077967    0.247577103087   -1.208230249587
 C   -1.976445736909   -1.135753074892   -2.402649304341
 O   -2.010830553587    0.108994763274   -2.196081346124
 O   -1.233993579729   -1.945834295125   -1.777440092536
 C   -2.982777938110   -1.697168927934   -3.445998714069
 H   -3.315897112546   -2.693180513059   -3.135637380268
 H   -2.468088892058   -1.706263348613   -4.416973223253
 H   -3.844735893322   -1.023220340172   -3.440542213394
