16

 C    2.867289244847    1.672094212470    3.542569671294
 H    2.940749244847    0.876304212470    4.290529671294
 H    2.342359244847    2.523464212470    3.987759671294
 H    3.846019244847    1.951854212470    3.128199671294
 C    2.011049244847    1.139214212470    2.360499671294
 O    1.288739244847    1.968134212470    1.740739671294
 O    2.041439244847   -0.103345787530    2.129479671294
CS   -1.293220755153   -0.240815787530    1.228599671294
CS    1.316689244847    0.252864212470   -1.197160328706
 C   -2.027454749041   -1.164855059115   -2.463580581260
 O   -2.061839565720    0.079892779051   -2.257012623042
 O   -1.285002591862   -1.974936279348   -1.838371369455
 C   -3.033786950243   -1.726270912157   -3.506929990987
 H   -3.367456957620   -2.721982715898   -3.196198676718
 H   -2.518854925223   -1.736052721082   -4.477768981718
 H   -3.895426918658   -1.051911764600   -3.502001113298
