16

 C    2.876556411449    1.677381321361    3.553639592708
 H    2.950016411449    0.881591321361    4.301599592708
 H    2.351626411449    2.528751321361    3.998829592708
 H    3.855286411449    1.957141321361    3.139269592708
 C    2.020316411449    1.144501321361    2.371569592708
 O    1.298006411449    1.973421321361    1.751809592708
 O    2.050706411449   -0.098058678639    2.140549592708
CS   -1.283953588551   -0.235528678639    1.239669592708
CS    1.325956411449    0.258151321361   -1.186090407292
 C   -2.078463761453   -1.193957043830   -2.524511857645
 O   -2.112848578131    0.050790794336   -2.317943899428
 O   -1.336011604273   -2.004038264063   -1.899302645840
 C   -3.084795962654   -1.755372896872   -3.567861267372
 H   -3.419021614257   -2.750781838839   -3.256756989576
 H   -2.569619179930   -1.765848212269   -4.538563163121
 H   -3.946114805600   -1.080599964290   -3.563464775448
