16

 C    2.978495224401    1.735539484923    3.675408765657
 H    3.051955224401    0.939749484923    4.423368765657
 H    2.453565224401    2.586909484923    4.120598765657
 H    3.957225224401    2.015299484923    3.261038765657
 C    2.122255224401    1.202659484923    2.493338765657
 O    1.399945224401    2.031579484923    1.873578765657
 O    2.152645224401   -0.039900515077    2.262318765657
CS   -1.182014775599   -0.177370515077    1.361438765657
CS    1.427895224401    0.316309484923   -1.064321234343
 C   -2.639562917647   -1.514078909932   -3.194755860488
 O   -2.673947734325   -0.269331071765   -2.988187902271
 O   -1.897110760468   -2.324160130164   -2.569546648684
 C   -3.645895118849   -2.075494762973   -4.238105270216
 H   -3.986569057685   -3.067355000124   -3.922691007766
 H   -3.127903176843   -2.094026664478   -5.207187277450
 H   -4.503460714383   -1.395946366897   -4.239898492476
