16

 C    3.080433996600    1.793697579429    3.797178015071
 H    3.153893996600    0.997907579429    4.545138015071
 H    2.555503996600    2.645067579429    4.242368015071
 H    4.059163996600    2.073457579429    3.382808015071
 C    2.224193996600    1.260817579429    2.615108015071
 O    1.501883996600    2.089737579429    1.995348015071
 O    2.254583996600    0.018257579429    2.384088015071
CS   -1.080076003400   -0.119212420571    1.483208015071
CS    1.529833996600    0.374467579429   -0.942551984929
 C   -3.200662114594   -1.834200845088   -3.864999786867
 O   -3.235046931272   -0.589453006922   -3.658431828650
 O   -2.458209957415   -2.644282065321   -3.239790575063
 C   -4.206994315796   -2.395616698130   -4.908349196595
 H   -4.554800207505   -3.383478956135   -4.588207289776
 H   -3.685943062757   -2.423077421206   -5.875577463600
 H   -5.060351629186   -1.710843577207   -4.917012766528
