16

 C    3.108235471841    1.809558864628    3.830387825323
 H    3.181695471841    1.013768864628    4.578347825323
 H    2.583305471841    2.660928864628    4.275577825323
 H    4.086965471841    2.089318864628    3.416017825323
 C    2.251995471841    1.276678864628    2.648317825323
 O    1.529685471841    2.105598864628    2.028557825323
 O    2.282385471841    0.034118864628    2.417297825323
CS   -1.052274528159   -0.103351135372    1.516417825323
CS    1.557635471841    0.390328864628   -0.909342174677
 C   -3.353689176393   -1.921506840707   -4.047793570013
 O   -3.388073993071   -0.676759002540   -3.841225611796
 O   -2.611237019213   -2.731588060940   -3.422584358208
 C   -4.360021377594   -2.482922693749   -5.091142979741
 H   -4.709905256111   -3.469605618715   -4.769631398716
 H   -3.838089517347   -2.512988521641   -6.057818829936
 H   -5.212141238929   -1.796638584664   -5.101813145488
