13

 C   -2.126793268968    0.000000119940    0.000000000000
 H   -3.222311268968    0.000000119940    0.000000000000
 C   -1.395326268968    1.209982119940    0.000000000000
 H   -1.933209268968    2.168601119940    0.000000000000
 C   -1.395326268968   -1.209982880060    0.000000000000
 H   -1.933208268968   -2.168601880060    0.000000000000
 C    0.009843731032    1.215097119940    0.000000000000
 H    0.556473731032    2.167255119940    0.000000000000
 C    0.009843731032   -1.215096880060    0.000000000000
 H    0.556473731032   -2.167253880060    0.000000000000
 C    0.804880731032    0.000000119940    0.000000000000
 O    2.091227731032    0.000000119940    0.000000000000
LI    3.091227731032    0.000000119940    0.000000000000
