13

 C   -2.133805763127    0.000000119940    0.000000000000
 H   -3.229323763127    0.000000119940    0.000000000000
 C   -1.402338763127    1.209982119940    0.000000000000
 H   -1.940221763127    2.168601119940    0.000000000000
 C   -1.402338763127   -1.209982880060    0.000000000000
 H   -1.940220763127   -2.168601880060    0.000000000000
 C    0.002831236873    1.215097119940    0.000000000000
 H    0.549461236873    2.167255119940    0.000000000000
 C    0.002831236873   -1.215096880060    0.000000000000
 H    0.549461236873   -2.167253880060    0.000000000000
 C    0.797868236873    0.000000119940    0.000000000000
 O    2.084215236873    0.000000119940    0.000000000000
LI    3.184215236873    0.000000119940    0.000000000000
