13

 C   -2.182893222239    0.000000119940    0.000000000000
 H   -3.278411222239    0.000000119940    0.000000000000
 C   -1.451426222239    1.209982119940    0.000000000000
 H   -1.989309222239    2.168601119940    0.000000000000
 C   -1.451426222239   -1.209982880060    0.000000000000
 H   -1.989308222239   -2.168601880060    0.000000000000
 C   -0.046256222239    1.215097119940    0.000000000000
 H    0.500373777761    2.167255119940    0.000000000000
 C   -0.046256222239   -1.215096880060    0.000000000000
 H    0.500373777761   -2.167253880060    0.000000000000
 C    0.748780777761    0.000000119940    0.000000000000
 O    2.035127777761    0.000000119940    0.000000000000
LI    3.835127777761    0.000000119940    0.000000000000
