13

 C   -2.196918210557    0.000000119940    0.000000000000
 H   -3.292436210557    0.000000119940    0.000000000000
 C   -1.465451210557    1.209982119940    0.000000000000
 H   -2.003334210557    2.168601119940    0.000000000000
 C   -1.465451210557   -1.209982880060    0.000000000000
 H   -2.003333210557   -2.168601880060    0.000000000000
 C   -0.060281210557    1.215097119940    0.000000000000
 H    0.486348789443    2.167255119940    0.000000000000
 C   -0.060281210557   -1.215096880060    0.000000000000
 H    0.486348789443   -2.167253880060    0.000000000000
 C    0.734755789443    0.000000119940    0.000000000000
 O    2.021102789443    0.000000119940    0.000000000000
LI    4.021102789443    0.000000119940    0.000000000000
