13

 C   -2.217955693034    0.000000119940    0.000000000000
 H   -3.313473693034    0.000000119940    0.000000000000
 C   -1.486488693034    1.209982119940    0.000000000000
 H   -2.024371693034    2.168601119940    0.000000000000
 C   -1.486488693034   -1.209982880060    0.000000000000
 H   -2.024370693034   -2.168601880060    0.000000000000
 C   -0.081318693034    1.215097119940    0.000000000000
 H    0.465311306966    2.167255119940    0.000000000000
 C   -0.081318693034   -1.215096880060    0.000000000000
 H    0.465311306966   -2.167253880060    0.000000000000
 C    0.713718306966    0.000000119940    0.000000000000
 O    2.000065306966    0.000000119940    0.000000000000
LI    4.300065306966    0.000000119940    0.000000000000
