13

 C   -2.246005669670    0.000000119940    0.000000000000
 H   -3.341523669670    0.000000119940    0.000000000000
 C   -1.514538669670    1.209982119940    0.000000000000
 H   -2.052421669670    2.168601119940    0.000000000000
 C   -1.514538669670   -1.209982880060    0.000000000000
 H   -2.052420669670   -2.168601880060    0.000000000000
 C   -0.109368669670    1.215097119940    0.000000000000
 H    0.437261330330    2.167255119940    0.000000000000
 C   -0.109368669670   -1.215096880060    0.000000000000
 H    0.437261330330   -2.167253880060    0.000000000000
 C    0.685668330330    0.000000119940    0.000000000000
 O    1.972015330330    0.000000119940    0.000000000000
LI    4.672015330330    0.000000119940    0.000000000000
