13

 C   -2.260030657987    0.000000119940    0.000000000000
 H   -3.355548657987    0.000000119940    0.000000000000
 C   -1.528563657987    1.209982119940    0.000000000000
 H   -2.066446657987    2.168601119940    0.000000000000
 C   -1.528563657987   -1.209982880060    0.000000000000
 H   -2.066445657987   -2.168601880060    0.000000000000
 C   -0.123393657987    1.215097119940    0.000000000000
 H    0.423236342013    2.167255119940    0.000000000000
 C   -0.123393657987   -1.215096880060    0.000000000000
 H    0.423236342013   -2.167253880060    0.000000000000
 C    0.671643342013    0.000000119940    0.000000000000
 O    1.957990342013    0.000000119940    0.000000000000
LI    4.857990342013    0.000000119940    0.000000000000
