13

 C   -2.316130611259    0.000000119940    0.000000000000
 H   -3.411648611259    0.000000119940    0.000000000000
 C   -1.584663611259    1.209982119940    0.000000000000
 H   -2.122546611259    2.168601119940    0.000000000000
 C   -1.584663611259   -1.209982880060    0.000000000000
 H   -2.122545611259   -2.168601880060    0.000000000000
 C   -0.179493611259    1.215097119940    0.000000000000
 H    0.367136388741    2.167255119940    0.000000000000
 C   -0.179493611259   -1.215096880060    0.000000000000
 H    0.367136388741   -2.167253880060    0.000000000000
 C    0.615543388741    0.000000119940    0.000000000000
 O    1.901890388741    0.000000119940    0.000000000000
LI    5.601890388741    0.000000119940    0.000000000000
