13

 C   -2.330155599576    0.000000119940    0.000000000000
 H   -3.425673599576    0.000000119940    0.000000000000
 C   -1.598688599576    1.209982119940    0.000000000000
 H   -2.136571599576    2.168601119940    0.000000000000
 C   -1.598688599576   -1.209982880060    0.000000000000
 H   -2.136570599576   -2.168601880060    0.000000000000
 C   -0.193518599576    1.215097119940    0.000000000000
 H    0.353111400424    2.167255119940    0.000000000000
 C   -0.193518599576   -1.215096880060    0.000000000000
 H    0.353111400424   -2.167253880060    0.000000000000
 C    0.601518400424    0.000000119940    0.000000000000
 O    1.887865400424    0.000000119940    0.000000000000
LI    5.787865400424    0.000000119940    0.000000000000
