13

 C   -2.344180587894    0.000000119940    0.000000000000
 H   -3.439698587894    0.000000119940    0.000000000000
 C   -1.612713587894    1.209982119940    0.000000000000
 H   -2.150596587894    2.168601119940    0.000000000000
 C   -1.612713587894   -1.209982880060    0.000000000000
 H   -2.150595587894   -2.168601880060    0.000000000000
 C   -0.207543587894    1.215097119940    0.000000000000
 H    0.339086412106    2.167255119940    0.000000000000
 C   -0.207543587894   -1.215096880060    0.000000000000
 H    0.339086412106   -2.167253880060    0.000000000000
 C    0.587493412106    0.000000119940    0.000000000000
 O    1.873840412106    0.000000119940    0.000000000000
LI    5.973840412106    0.000000119940    0.000000000000
