13

 C   -2.428330517801    0.000000119940    0.000000000000
 H   -3.523848517801    0.000000119940    0.000000000000
 C   -1.696863517801    1.209982119940    0.000000000000
 H   -2.234746517801    2.168601119940    0.000000000000
 C   -1.696863517801   -1.209982880060    0.000000000000
 H   -2.234745517801   -2.168601880060    0.000000000000
 C   -0.291693517801    1.215097119940    0.000000000000
 H    0.254936482199    2.167255119940    0.000000000000
 C   -0.291693517801   -1.215096880060    0.000000000000
 H    0.254936482199   -2.167253880060    0.000000000000
 C    0.503343482199    0.000000119940    0.000000000000
 O    1.789690482199    0.000000119940    0.000000000000
LI    7.089690482199    0.000000119940    0.000000000000
