13

 C   -2.435343011960    0.000000119940    0.000000000000
 H   -3.530861011960    0.000000119940    0.000000000000
 C   -1.703876011960    1.209982119940    0.000000000000
 H   -2.241759011960    2.168601119940    0.000000000000
 C   -1.703876011960   -1.209982880060    0.000000000000
 H   -2.241758011960   -2.168601880060    0.000000000000
 C   -0.298706011960    1.215097119940    0.000000000000
 H    0.247923988040    2.167255119940    0.000000000000
 C   -0.298706011960   -1.215096880060    0.000000000000
 H    0.247923988040   -2.167253880060    0.000000000000
 C    0.496330988040    0.000000119940    0.000000000000
 O    1.782677988040    0.000000119940    0.000000000000
LI    7.182677988040    0.000000119940    0.000000000000
