13

 C   -2.442355506119    0.000000119940    0.000000000000
 H   -3.537873506119    0.000000119940    0.000000000000
 C   -1.710888506119    1.209982119940    0.000000000000
 H   -2.248771506119    2.168601119940    0.000000000000
 C   -1.710888506119   -1.209982880060    0.000000000000
 H   -2.248770506119   -2.168601880060    0.000000000000
 C   -0.305718506119    1.215097119940    0.000000000000
 H    0.240911493881    2.167255119940    0.000000000000
 C   -0.305718506119   -1.215096880060    0.000000000000
 H    0.240911493881   -2.167253880060    0.000000000000
 C    0.489318493881    0.000000119940    0.000000000000
 O    1.775665493881    0.000000119940    0.000000000000
LI    7.275665493881    0.000000119940    0.000000000000
