13

 C   -2.449368000278    0.000000119940    0.000000000000
 H   -3.544886000278    0.000000119940    0.000000000000
 C   -1.717901000278    1.209982119940    0.000000000000
 H   -2.255784000278    2.168601119940    0.000000000000
 C   -1.717901000278   -1.209982880060    0.000000000000
 H   -2.255783000278   -2.168601880060    0.000000000000
 C   -0.312731000278    1.215097119940    0.000000000000
 H    0.233898999722    2.167255119940    0.000000000000
 C   -0.312731000278   -1.215096880060    0.000000000000
 H    0.233898999722   -2.167253880060    0.000000000000
 C    0.482305999722    0.000000119940    0.000000000000
 O    1.768652999722    0.000000119940    0.000000000000
LI    7.368652999722    0.000000119940    0.000000000000
