13

 C   -2.463392988596    0.000000119940    0.000000000000
 H   -3.558910988596    0.000000119940    0.000000000000
 C   -1.731925988596    1.209982119940    0.000000000000
 H   -2.269808988596    2.168601119940    0.000000000000
 C   -1.731925988596   -1.209982880060    0.000000000000
 H   -2.269807988596   -2.168601880060    0.000000000000
 C   -0.326755988596    1.215097119940    0.000000000000
 H    0.219874011404    2.167255119940    0.000000000000
 C   -0.326755988596   -1.215096880060    0.000000000000
 H    0.219874011404   -2.167253880060    0.000000000000
 C    0.468281011404    0.000000119940    0.000000000000
 O    1.754628011404    0.000000119940    0.000000000000
LI    7.554628011404    0.000000119940    0.000000000000
