13

 C   -2.477417976914    0.000000119940    0.000000000000
 H   -3.572935976914    0.000000119940    0.000000000000
 C   -1.745950976914    1.209982119940    0.000000000000
 H   -2.283833976914    2.168601119940    0.000000000000
 C   -1.745950976914   -1.209982880060    0.000000000000
 H   -2.283832976914   -2.168601880060    0.000000000000
 C   -0.340780976914    1.215097119940    0.000000000000
 H    0.205849023086    2.167255119940    0.000000000000
 C   -0.340780976914   -1.215096880060    0.000000000000
 H    0.205849023086   -2.167253880060    0.000000000000
 C    0.454256023086    0.000000119940    0.000000000000
 O    1.740603023086    0.000000119940    0.000000000000
LI    7.740603023086    0.000000119940    0.000000000000
