13

 C   -2.491442965231    0.000000119940    0.000000000000
 H   -3.586960965231    0.000000119940    0.000000000000
 C   -1.759975965231    1.209982119940    0.000000000000
 H   -2.297858965231    2.168601119940    0.000000000000
 C   -1.759975965231   -1.209982880060    0.000000000000
 H   -2.297857965231   -2.168601880060    0.000000000000
 C   -0.354805965231    1.215097119940    0.000000000000
 H    0.191824034769    2.167255119940    0.000000000000
 C   -0.354805965231   -1.215096880060    0.000000000000
 H    0.191824034769   -2.167253880060    0.000000000000
 C    0.440231034769    0.000000119940    0.000000000000
 O    1.726578034769    0.000000119940    0.000000000000
LI    7.926578034769    0.000000119940    0.000000000000
