13

 C   -2.498455459390    0.000000119940    0.000000000000
 H   -3.593973459390    0.000000119940    0.000000000000
 C   -1.766988459390    1.209982119940    0.000000000000
 H   -2.304871459390    2.168601119940    0.000000000000
 C   -1.766988459390   -1.209982880060    0.000000000000
 H   -2.304870459390   -2.168601880060    0.000000000000
 C   -0.361818459390    1.215097119940    0.000000000000
 H    0.184811540610    2.167255119940    0.000000000000
 C   -0.361818459390   -1.215096880060    0.000000000000
 H    0.184811540610   -2.167253880060    0.000000000000
 C    0.433218540610    0.000000119940    0.000000000000
 O    1.719565540610    0.000000119940    0.000000000000
LI    8.019565540610    0.000000119940    0.000000000000
