13

 C   -2.505467953549    0.000000119940    0.000000000000
 H   -3.600985953549    0.000000119940    0.000000000000
 C   -1.774000953549    1.209982119940    0.000000000000
 H   -2.311883953549    2.168601119940    0.000000000000
 C   -1.774000953549   -1.209982880060    0.000000000000
 H   -2.311882953549   -2.168601880060    0.000000000000
 C   -0.368830953549    1.215097119940    0.000000000000
 H    0.177799046451    2.167255119940    0.000000000000
 C   -0.368830953549   -1.215096880060    0.000000000000
 H    0.177799046451   -2.167253880060    0.000000000000
 C    0.426206046451    0.000000119940    0.000000000000
 O    1.712553046451    0.000000119940    0.000000000000
LI    8.112553046451    0.000000119940    0.000000000000
