13

 C   -2.526505436026    0.000000119940    0.000000000000
 H   -3.622023436026    0.000000119940    0.000000000000
 C   -1.795038436026    1.209982119940    0.000000000000
 H   -2.332921436026    2.168601119940    0.000000000000
 C   -1.795038436026   -1.209982880060    0.000000000000
 H   -2.332920436026   -2.168601880060    0.000000000000
 C   -0.389868436026    1.215097119940    0.000000000000
 H    0.156761563974    2.167255119940    0.000000000000
 C   -0.389868436026   -1.215096880060    0.000000000000
 H    0.156761563974   -2.167253880060    0.000000000000
 C    0.405168563974    0.000000119940    0.000000000000
 O    1.691515563974    0.000000119940    0.000000000000
LI    8.391515563974    0.000000119940    0.000000000000
