13

 C   -2.540530424344    0.000000119940    0.000000000000
 H   -3.636048424344    0.000000119940    0.000000000000
 C   -1.809063424344    1.209982119940    0.000000000000
 H   -2.346946424344    2.168601119940    0.000000000000
 C   -1.809063424344   -1.209982880060    0.000000000000
 H   -2.346945424344   -2.168601880060    0.000000000000
 C   -0.403893424344    1.215097119940    0.000000000000
 H    0.142736575656    2.167255119940    0.000000000000
 C   -0.403893424344   -1.215096880060    0.000000000000
 H    0.142736575656   -2.167253880060    0.000000000000
 C    0.391143575656    0.000000119940    0.000000000000
 O    1.677490575656    0.000000119940    0.000000000000
LI    8.577490575656    0.000000119940    0.000000000000
