13

 C   -2.561567906820    0.000000119940    0.000000000000
 H   -3.657085906820    0.000000119940    0.000000000000
 C   -1.830100906820    1.209982119940    0.000000000000
 H   -2.367983906820    2.168601119940    0.000000000000
 C   -1.830100906820   -1.209982880060    0.000000000000
 H   -2.367982906820   -2.168601880060    0.000000000000
 C   -0.424930906820    1.215097119940    0.000000000000
 H    0.121699093180    2.167255119940    0.000000000000
 C   -0.424930906820   -1.215096880060    0.000000000000
 H    0.121699093180   -2.167253880060    0.000000000000
 C    0.370106093180    0.000000119940    0.000000000000
 O    1.656453093180    0.000000119940    0.000000000000
LI    8.856453093180    0.000000119940    0.000000000000
