13

 C   -2.603642871774    0.000000119940    0.000000000000
 H   -3.699160871774    0.000000119940    0.000000000000
 C   -1.872175871774    1.209982119940    0.000000000000
 H   -2.410058871774    2.168601119940    0.000000000000
 C   -1.872175871774   -1.209982880060    0.000000000000
 H   -2.410057871774   -2.168601880060    0.000000000000
 C   -0.467005871774    1.215097119940    0.000000000000
 H    0.079624128226    2.167255119940    0.000000000000
 C   -0.467005871774   -1.215096880060    0.000000000000
 H    0.079624128226   -2.167253880060    0.000000000000
 C    0.328031128226    0.000000119940    0.000000000000
 O    1.614378128226    0.000000119940    0.000000000000
LI    9.414378128226    0.000000119940    0.000000000000
