13

 C   -2.624680354251    0.000000119940    0.000000000000
 H   -3.720198354251    0.000000119940    0.000000000000
 C   -1.893213354251    1.209982119940    0.000000000000
 H   -2.431096354251    2.168601119940    0.000000000000
 C   -1.893213354251   -1.209982880060    0.000000000000
 H   -2.431095354251   -2.168601880060    0.000000000000
 C   -0.488043354251    1.215097119940    0.000000000000
 H    0.058586645749    2.167255119940    0.000000000000
 C   -0.488043354251   -1.215096880060    0.000000000000
 H    0.058586645749   -2.167253880060    0.000000000000
 C    0.306993645749    0.000000119940    0.000000000000
 O    1.593340645749    0.000000119940    0.000000000000
LI    9.693340645749    0.000000119940    0.000000000000
