13

 C   -2.631692848410    0.000000119940    0.000000000000
 H   -3.727210848410    0.000000119940    0.000000000000
 C   -1.900225848410    1.209982119940    0.000000000000
 H   -2.438108848410    2.168601119940    0.000000000000
 C   -1.900225848410   -1.209982880060    0.000000000000
 H   -2.438107848410   -2.168601880060    0.000000000000
 C   -0.495055848410    1.215097119940    0.000000000000
 H    0.051574151590    2.167255119940    0.000000000000
 C   -0.495055848410   -1.215096880060    0.000000000000
 H    0.051574151590   -2.167253880060    0.000000000000
 C    0.299981151590    0.000000119940    0.000000000000
 O    1.586328151590    0.000000119940    0.000000000000
LI    9.786328151590    0.000000119940    0.000000000000
