13

 C   -2.645717836727    0.000000119940    0.000000000000
 H   -3.741235836727    0.000000119940    0.000000000000
 C   -1.914250836727    1.209982119940    0.000000000000
 H   -2.452133836727    2.168601119940    0.000000000000
 C   -1.914250836727   -1.209982880060    0.000000000000
 H   -2.452132836727   -2.168601880060    0.000000000000
 C   -0.509080836727    1.215097119940    0.000000000000
 H    0.037549163273    2.167255119940    0.000000000000
 C   -0.509080836727   -1.215096880060    0.000000000000
 H    0.037549163273   -2.167253880060    0.000000000000
 C    0.285956163273    0.000000119940    0.000000000000
 O    1.572303163273    0.000000119940    0.000000000000
LI    9.972303163273    0.000000119940    0.000000000000
