13

 C   -2.652730330886    0.000000119940    0.000000000000
 H   -3.748248330886    0.000000119940    0.000000000000
 C   -1.921263330886    1.209982119940    0.000000000000
 H   -2.459146330886    2.168601119940    0.000000000000
 C   -1.921263330886   -1.209982880060    0.000000000000
 H   -2.459145330886   -2.168601880060    0.000000000000
 C   -0.516093330886    1.215097119940    0.000000000000
 H    0.030536669114    2.167255119940    0.000000000000
 C   -0.516093330886   -1.215096880060    0.000000000000
 H    0.030536669114   -2.167253880060    0.000000000000
 C    0.278943669114    0.000000119940    0.000000000000
 O    1.565290669114    0.000000119940    0.000000000000
LI   10.065290669114    0.000000119940    0.000000000000
