13

 C   -2.666755319204    0.000000119940    0.000000000000
 H   -3.762273319204    0.000000119940    0.000000000000
 C   -1.935288319204    1.209982119940    0.000000000000
 H   -2.473171319204    2.168601119940    0.000000000000
 C   -1.935288319204   -1.209982880060    0.000000000000
 H   -2.473170319204   -2.168601880060    0.000000000000
 C   -0.530118319204    1.215097119940    0.000000000000
 H    0.016511680796    2.167255119940    0.000000000000
 C   -0.530118319204   -1.215096880060    0.000000000000
 H    0.016511680796   -2.167253880060    0.000000000000
 C    0.264918680796    0.000000119940    0.000000000000
 O    1.551265680796    0.000000119940    0.000000000000
LI   10.251265680796    0.000000119940    0.000000000000
