13

 C   -2.673767813363    0.000000119940    0.000000000000
 H   -3.769285813363    0.000000119940    0.000000000000
 C   -1.942300813363    1.209982119940    0.000000000000
 H   -2.480183813363    2.168601119940    0.000000000000
 C   -1.942300813363   -1.209982880060    0.000000000000
 H   -2.480182813363   -2.168601880060    0.000000000000
 C   -0.537130813363    1.215097119940    0.000000000000
 H    0.009499186637    2.167255119940    0.000000000000
 C   -0.537130813363   -1.215096880060    0.000000000000
 H    0.009499186637   -2.167253880060    0.000000000000
 C    0.257906186637    0.000000119940    0.000000000000
 O    1.544253186637    0.000000119940    0.000000000000
LI   10.344253186637    0.000000119940    0.000000000000
