13

 C   -2.680780307522    0.000000119940    0.000000000000
 H   -3.776298307522    0.000000119940    0.000000000000
 C   -1.949313307522    1.209982119940    0.000000000000
 H   -2.487196307522    2.168601119940    0.000000000000
 C   -1.949313307522   -1.209982880060    0.000000000000
 H   -2.487195307522   -2.168601880060    0.000000000000
 C   -0.544143307522    1.215097119940    0.000000000000
 H    0.002486692478    2.167255119940    0.000000000000
 C   -0.544143307522   -1.215096880060    0.000000000000
 H    0.002486692478   -2.167253880060    0.000000000000
 C    0.250893692478    0.000000119940    0.000000000000
 O    1.537240692478    0.000000119940    0.000000000000
LI   10.437240692478    0.000000119940    0.000000000000
