13

 C   -2.729867766634    0.000000119940    0.000000000000
 H   -3.825385766634    0.000000119940    0.000000000000
 C   -1.998400766634    1.209982119940    0.000000000000
 H   -2.536283766634    2.168601119940    0.000000000000
 C   -1.998400766634   -1.209982880060    0.000000000000
 H   -2.536282766634   -2.168601880060    0.000000000000
 C   -0.593230766634    1.215097119940    0.000000000000
 H   -0.046600766634    2.167255119940    0.000000000000
 C   -0.593230766634   -1.215096880060    0.000000000000
 H   -0.046600766634   -2.167253880060    0.000000000000
 C    0.201806233366    0.000000119940    0.000000000000
 O    1.488153233366    0.000000119940    0.000000000000
LI   11.088153233366    0.000000119940    0.000000000000
