13

 C   -2.743892754952    0.000000119940    0.000000000000
 H   -3.839410754952    0.000000119940    0.000000000000
 C   -2.012425754952    1.209982119940    0.000000000000
 H   -2.550308754952    2.168601119940    0.000000000000
 C   -2.012425754952   -1.209982880060    0.000000000000
 H   -2.550307754952   -2.168601880060    0.000000000000
 C   -0.607255754952    1.215097119940    0.000000000000
 H   -0.060625754952    2.167255119940    0.000000000000
 C   -0.607255754952   -1.215096880060    0.000000000000
 H   -0.060625754952   -2.167253880060    0.000000000000
 C    0.187781245048    0.000000119940    0.000000000000
 O    1.474128245048    0.000000119940    0.000000000000
LI   11.274128245048    0.000000119940    0.000000000000
