13

 C    1.438681094012    2.137257229737    1.229725690794
 H    1.473201094012    3.238109229737    1.229725690794
 H    1.963264094012    1.768112229737    2.123344690794
 H    1.963264094012    1.768112229737    0.336106690794
 C   -0.004098905988    1.660206229737    1.229725690794
 H   -0.543272905988    2.031359229737    0.334959690794
 H   -0.543272905988    2.031359229737    2.124491690794
 O   -0.003533905988    0.231699229737    1.229725690794
 C   -1.333120905988   -0.278707770263    1.229725690794
 H   -1.886503905988    0.052071229737    0.330592690794
 H   -1.886503905988    0.052071229737    2.128858690794
 H   -1.260037905988   -1.374182770263    1.229725690794
CS   -0.003276883380   -0.418138991753   -0.555690288700
