13

 C    1.437926398837    4.045376415682    6.472240477861
 H    1.472446398837    5.146228415682    6.472240477861
 H    1.962509398837    3.676231415682    7.365859477861
 H    1.962509398837    3.676231415682    5.578621477861
 C   -0.004853601163    3.568325415682    6.472240477861
 H   -0.544027601163    3.939478415682    5.577474477861
 H   -0.544027601163    3.939478415682    7.367006477861
 O   -0.004288601163    2.139818415682    6.472240477861
 C   -1.333875601163    1.629411415682    6.472240477861
 H   -1.887258601163    1.960190415682    5.573107477861
 H   -1.887258601163    1.960190415682    7.371373477861
 H   -1.260792601163    0.533936415682    6.472240477861
CS   -0.002935850593   -1.280382750056   -2.924685729998
