13

 C    1.438606556217    2.325713445633    1.747504929022
 H    1.473126556217    3.426565445633    1.747504929022
 H    1.963189556217    1.956568445633    2.641123929022
 H    1.963189556217    1.956568445633    0.853885929022
 C   -0.004173443783    1.848662445633    1.747504929022
 H   -0.543347443783    2.219815445633    0.852738929022
 H   -0.543347443783    2.219815445633    2.642270929022
 O   -0.003608443783    0.420155445633    1.747504929022
 C   -1.333195443783   -0.090251554367    1.747504929022
 H   -1.886578443783    0.240527445633    0.848371929022
 H   -1.886578443783    0.240527445633    2.646637929022
 H   -1.260112443783   -1.185726554367    1.747504929022
CS   -0.003243201130   -0.503298869116   -0.789665147100
