13

 C    1.438597238992    2.349270472620    1.812227333801
 H    1.473117238992    3.450122472620    1.812227333801
 H    1.963180238992    1.980125472620    2.705846333801
 H    1.963180238992    1.980125472620    0.918608333801
 C   -0.004182761008    1.872219472620    1.812227333801
 H   -0.543356761008    2.243372472620    0.917461333801
 H   -0.543356761008    2.243372472620    2.706993333801
 O   -0.003617761008    0.443712472620    1.812227333801
 C   -1.333204761008   -0.066694527380    1.812227333801
 H   -1.886587761008    0.264084472620    0.913094333801
 H   -1.886587761008    0.264084472620    2.711360333801
 H   -1.260121761008   -1.162169527380    1.812227333801
CS   -0.003238990848   -0.513943853787   -0.818912004400
