13

 C    1.438578604543    2.396384526594    1.941672143358
 H    1.473098604543    3.497236526594    1.941672143358
 H    1.963161604543    2.027239526594    2.835291143358
 H    1.963161604543    2.027239526594    1.048053143358
 C   -0.004201395457    1.919333526594    1.941672143358
 H   -0.543375395457    2.290486526594    1.046906143358
 H   -0.543375395457    2.290486526594    2.836438143358
 O   -0.003636395457    0.490826526594    1.941672143358
 C   -1.333223395457   -0.019580473406    1.941672143358
 H   -1.886606395457    0.311198526594    1.042539143358
 H   -1.886606395457    0.311198526594    2.840805143358
 H   -1.260140395457   -1.115055473406    1.941672143358
CS   -0.003230570286   -0.535233823128   -0.877405718999
