13

 C    1.438541335646    2.490612634542    2.200561762473
 H    1.473061335646    3.591464634542    2.200561762473
 H    1.963124335646    2.121467634542    3.094180762473
 H    1.963124335646    2.121467634542    1.306942762473
 C   -0.004238664354    2.013561634542    2.200561762473
 H   -0.543412664354    2.384714634542    1.305795762473
 H   -0.543412664354    2.384714634542    3.095327762473
 O   -0.003673664354    0.585054634542    2.200561762473
 C   -1.333260664354    0.074647634542    2.200561762473
 H   -1.886643664354    0.405426634542    1.301428762473
 H   -1.886643664354    0.405426634542    3.099694762473
 H   -1.260177664354   -1.020827365458    2.200561762473
CS   -0.003213729160   -0.577813761809   -0.994393148199
