13

 C    1.438504066748    2.584840742490    2.459451381587
 H    1.473024066748    3.685692742490    2.459451381587
 H    1.963087066748    2.215695742490    3.353070381587
 H    1.963087066748    2.215695742490    1.565832381587
 C   -0.004275933252    2.107789742490    2.459451381587
 H   -0.543449933252    2.478942742490    1.564685381587
 H   -0.543449933252    2.478942742490    3.354217381587
 O   -0.003710933252    0.679282742490    2.459451381587
 C   -1.333297933252    0.168875742490    2.459451381587
 H   -1.886680933252    0.499654742490    1.560318381587
 H   -1.886680933252    0.499654742490    3.358584381587
 H   -1.260214933252   -0.926599257510    2.459451381587
CS   -0.003196888035   -0.620393700491   -1.111380577399
