13

 C    1.438476115075    2.655511823451    2.653618595923
 H    1.472996115075    3.756363823451    2.653618595923
 H    1.963059115075    2.286366823451    3.547237595923
 H    1.963059115075    2.286366823451    1.759999595923
 C   -0.004303884925    2.178460823451    2.653618595923
 H   -0.543477884925    2.549613823451    1.758852595923
 H   -0.543477884925    2.549613823451    3.548384595923
 O   -0.003738884925    0.749953823451    2.653618595923
 C   -1.333325884925    0.239546823451    2.653618595923
 H   -1.886708884925    0.570325823451    1.754485595923
 H   -1.886708884925    0.570325823451    3.552751595923
 H   -1.260242884925   -0.855928176549    2.653618595923
CS   -0.003184257191   -0.652328654502   -1.199121149299
