13

 C    1.438466797851    2.679068850438    2.718341000702
 H    1.472986797851    3.779920850438    2.718341000702
 H    1.963049797851    2.309923850438    3.611960000702
 H    1.963049797851    2.309923850438    1.824722000702
 C   -0.004313202149    2.202017850438    2.718341000702
 H   -0.543487202149    2.573170850438    1.823575000702
 H   -0.543487202149    2.573170850438    3.613107000702
 O   -0.003748202149    0.773510850438    2.718341000702
 C   -1.333335202149    0.263103850438    2.718341000702
 H   -1.886718202149    0.593882850438    1.819208000702
 H   -1.886718202149    0.593882850438    3.617474000702
 H   -1.260252202149   -0.832371149562    2.718341000702
CS   -0.003180046910   -0.662973639172   -1.228368006599
