13

 C    1.438410894505    2.820411012359    3.106675429373
 H    1.472930894505    3.921263012359    3.106675429373
 H    1.962993894505    2.451266012359    4.000294429373
 H    1.962993894505    2.451266012359    2.213056429373
 C   -0.004369105495    2.343360012359    3.106675429373
 H   -0.543543105495    2.714513012359    2.211909429373
 H   -0.543543105495    2.714513012359    4.001441429373
 O   -0.003804105495    0.914853012359    3.106675429373
 C   -1.333391105495    0.404446012359    3.106675429373
 H   -1.886774105495    0.735225012359    2.207542429373
 H   -1.886774105495    0.735225012359    4.005808429373
 H   -1.260308105495   -0.691028987641    3.106675429373
CS   -0.003154785222   -0.726843547195   -1.403849150399
