13

 C    1.438401577280    2.843968039346    3.171397834152
 H    1.472921577280    3.944820039346    3.171397834152
 H    1.962984577280    2.474823039346    4.065016834152
 H    1.962984577280    2.474823039346    2.277778834152
 C   -0.004378422720    2.366917039346    3.171397834152
 H   -0.543552422720    2.738070039346    2.276631834152
 H   -0.543552422720    2.738070039346    4.066163834152
 O   -0.003813422720    0.938410039346    3.171397834152
 C   -1.333400422720    0.428003039346    3.171397834152
 H   -1.886783422720    0.758782039346    2.272264834152
 H   -1.886783422720    0.758782039346    4.070530834152
 H   -1.260317422720   -0.667471960654    3.171397834152
CS   -0.003150574940   -0.737488531865   -1.433096007699
