13

 C    1.438364308383    2.938196147294    3.430287453266
 H    1.472884308383    4.039048147294    3.430287453266
 H    1.962947308383    2.569051147294    4.323906453266
 H    1.962947308383    2.569051147294    2.536668453266
 C   -0.004415691617    2.461145147294    3.430287453266
 H   -0.543589691617    2.832298147294    2.535521453266
 H   -0.543589691617    2.832298147294    4.325053453266
 O   -0.003850691617    1.032638147294    3.430287453266
 C   -1.333437691617    0.522231147294    3.430287453266
 H   -1.886820691617    0.853010147294    2.531154453266
 H   -1.886820691617    0.853010147294    4.329420453266
 H   -1.260354691617   -0.573243852706    3.430287453266
CS   -0.003133733815   -0.780068470547   -1.550083436899
