13

 C    1.438354991158    2.961753174281    3.495009858045
 H    1.472874991158    4.062605174281    3.495009858045
 H    1.962937991158    2.592608174281    4.388628858045
 H    1.962937991158    2.592608174281    2.601390858045
 C   -0.004425008842    2.484702174281    3.495009858045
 H   -0.543599008842    2.855855174281    2.600243858045
 H   -0.543599008842    2.855855174281    4.389775858045
 O   -0.003860008842    1.056195174281    3.495009858045
 C   -1.333447008842    0.545788174281    3.495009858045
 H   -1.886830008842    0.876567174281    2.595876858045
 H   -1.886830008842    0.876567174281    4.394142858045
 H   -1.260364008842   -0.549686825719    3.495009858045
CS   -0.003129523534   -0.790713455217   -1.579330294199
