13

 C    1.438345673934    2.985310201268    3.559732262823
 H    1.472865673934    4.086162201268    3.559732262823
 H    1.962928673934    2.616165201268    4.453351262823
 H    1.962928673934    2.616165201268    2.666113262823
 C   -0.004434326066    2.508259201268    3.559732262823
 H   -0.543608326066    2.879412201268    2.664966262823
 H   -0.543608326066    2.879412201268    4.454498262823
 O   -0.003869326066    1.079752201268    3.559732262823
 C   -1.333456326066    0.569345201268    3.559732262823
 H   -1.886839326066    0.900124201268    2.660599262823
 H   -1.886839326066    0.900124201268    4.458865262823
 H   -1.260373326066   -0.526129798732    3.559732262823
CS   -0.003125313253   -0.801358439888   -1.608577151499
