13

 C    1.438280453363    3.150209390177    4.012789096274
 H    1.472800453363    4.251061390177    4.012789096274
 H    1.962863453363    2.781064390177    4.906408096274
 H    1.962863453363    2.781064390177    3.119170096274
 C   -0.004499546637    2.673158390177    4.012789096274
 H   -0.543673546637    3.044311390177    3.118023096274
 H   -0.543673546637    3.044311390177    4.907555096274
 O   -0.003934546637    1.244651390177    4.012789096274
 C   -1.333521546637    0.734244390177    4.012789096274
 H   -1.886904546637    1.065023390177    3.113656096274
 H   -1.886904546637    1.065023390177    4.911922096274
 H   -1.260438546637   -0.361230609823    4.012789096274
CS   -0.003095841283   -0.875873332581   -1.813305152599
