13

 C    1.438233867241    3.267994525112    4.336401120167
 H    1.472753867241    4.368846525112    4.336401120167
 H    1.962816867241    2.898849525112    5.230020120167
 H    1.962816867241    2.898849525112    3.442782120167
 C   -0.004546132759    2.790943525112    4.336401120167
 H   -0.543720132759    3.162096525112    3.441635120167
 H   -0.543720132759    3.162096525112    5.231167120167
 O   -0.003981132759    1.362436525112    4.336401120167
 C   -1.333568132759    0.852029525112    4.336401120167
 H   -1.886951132759    1.182808525112    3.437268120167
 H   -1.886951132759    1.182808525112    5.235534120167
 H   -1.260485132759   -0.243445474888    4.336401120167
CS   -0.003074789877   -0.929098255933   -1.959539439099
