13

 C    1.438215232793    3.315108579086    4.465845929724
 H    1.472735232793    4.415960579086    4.465845929724
 H    1.962798232793    2.945963579086    5.359464929724
 H    1.962798232793    2.945963579086    3.572226929724
 C   -0.004564767207    2.838057579086    4.465845929724
 H   -0.543738767207    3.209210579086    3.571079929724
 H   -0.543738767207    3.209210579086    5.360611929724
 O   -0.003999767207    1.409550579086    4.465845929724
 C   -1.333586767207    0.899143579086    4.465845929724
 H   -1.886969767207    1.229922579086    3.566712929724
 H   -1.886969767207    1.229922579086    5.364978929724
 H   -1.260503767207   -0.196331420914    4.465845929724
CS   -0.003066369314   -0.950388225273   -2.018033153699
