13

 C    1.438205915568    3.338665606073    4.530568334503
 H    1.472725915568    4.439517606073    4.530568334503
 H    1.962788915568    2.969520606073    5.424187334503
 H    1.962788915568    2.969520606073    3.636949334503
 C   -0.004574084432    2.861614606073    4.530568334503
 H   -0.543748084432    3.232767606073    3.635802334503
 H   -0.543748084432    3.232767606073    5.425334334503
 O   -0.004009084432    1.433107606073    4.530568334503
 C   -1.333596084432    0.922700606073    4.530568334503
 H   -1.886979084432    1.253479606073    3.631435334503
 H   -1.886979084432    1.253479606073    5.429701334503
 H   -1.260513084432   -0.172774393927    4.530568334503
CS   -0.003062159033   -0.961033209944   -2.047280010999
