13

 C    1.438159329446    3.456450741008    4.854180358396
 H    1.472679329446    4.557302741008    4.854180358396
 H    1.962742329446    3.087305741008    5.747799358396
 H    1.962742329446    3.087305741008    3.960561358396
 C   -0.004620670554    2.979399741008    4.854180358396
 H   -0.543794670554    3.350552741008    3.959414358396
 H   -0.543794670554    3.350552741008    5.748946358396
 O   -0.004055670554    1.550892741008    4.854180358396
 C   -1.333642670554    1.040485741008    4.854180358396
 H   -1.887025670554    1.371264741008    3.955047358396
 H   -1.887025670554    1.371264741008    5.753313358396
 H   -1.260559670554   -0.054989258992    4.854180358396
CS   -0.003041107626   -1.014258133296   -2.193514297499
