13

 C    1.438150012222    3.480007767995    4.918902763174
 H    1.472670012222    4.580859767995    4.918902763174
 H    1.962733012222    3.110862767995    5.812521763174
 H    1.962733012222    3.110862767995    4.025283763174
 C   -0.004629987778    3.002956767995    4.918902763174
 H   -0.543803987778    3.374109767995    4.024136763174
 H   -0.543803987778    3.374109767995    5.813668763174
 O   -0.004064987778    1.574449767995    4.918902763174
 C   -1.333651987778    1.064042767995    4.918902763174
 H   -1.887034987778    1.394821767995    4.019769763174
 H   -1.887034987778    1.394821767995    5.818035763174
 H   -1.260568987778   -0.031432232005    4.918902763174
CS   -0.003036897345   -1.024903117966   -2.222761154799
