13

 C    1.438122060549    3.550678848956    5.113069977510
 H    1.472642060549    4.651530848956    5.113069977510
 H    1.962705060549    3.181533848956    6.006688977510
 H    1.962705060549    3.181533848956    4.219450977510
 C   -0.004657939451    3.073627848956    5.113069977510
 H   -0.543831939451    3.444780848956    4.218303977510
 H   -0.543831939451    3.444780848956    6.007835977510
 O   -0.004092939451    1.645120848956    5.113069977510
 C   -1.333679939451    1.134713848956    5.113069977510
 H   -1.887062939451    1.465492848956    4.213936977510
 H   -1.887062939451    1.465492848956    6.012202977510
 H   -1.260596939451    0.039238848956    5.113069977510
CS   -0.003024266501   -1.056838071977   -2.310501726699
