13

 C    1.438084791651    3.644906956904    5.371959596625
 H    1.472604791651    4.745758956904    5.371959596625
 H    1.962667791651    3.275761956904    6.265578596625
 H    1.962667791651    3.275761956904    4.478340596625
 C   -0.004695208349    3.167855956904    5.371959596625
 H   -0.543869208349    3.539008956904    4.477193596625
 H   -0.543869208349    3.539008956904    6.266725596625
 O   -0.004130208349    1.739348956904    5.371959596625
 C   -1.333717208349    1.228941956904    5.371959596625
 H   -1.887100208349    1.559720956904    4.472826596625
 H   -1.887100208349    1.559720956904    6.271092596625
 H   -1.260634208349    0.133466956904    5.371959596625
CS   -0.003007425376   -1.099418010659   -2.427489155899
