13

 C    1.438075474427    3.668463983891    5.436682001403
 H    1.472595474427    4.769315983891    5.436682001403
 H    1.962658474427    3.299318983891    6.330301001403
 H    1.962658474427    3.299318983891    4.543063001403
 C   -0.004704525573    3.191412983891    5.436682001403
 H   -0.543878525573    3.562565983891    4.541916001403
 H   -0.543878525573    3.562565983891    6.331448001403
 O   -0.004139525573    1.762905983891    5.436682001403
 C   -1.333726525573    1.252498983891    5.436682001403
 H   -1.887109525573    1.583277983891    4.537549001403
 H   -1.887109525573    1.583277983891    6.335815001403
 H   -1.260643525573    0.157023983891    5.436682001403
CS   -0.003003215094   -1.110062995329   -2.456736013199
