13

 C    1.438056839978    3.715578037865    5.566126810960
 H    1.472576839978    4.816430037865    5.566126810960
 H    1.962639839978    3.346433037865    6.459745810960
 H    1.962639839978    3.346433037865    4.672507810960
 C   -0.004723160022    3.238527037865    5.566126810960
 H   -0.543897160022    3.609680037865    4.671360810960
 H   -0.543897160022    3.609680037865    6.460892810960
 O   -0.004158160022    1.810020037865    5.566126810960
 C   -1.333745160022    1.299613037865    5.566126810960
 H   -1.887128160022    1.630392037865    4.666993810960
 H   -1.887128160022    1.630392037865    6.465259810960
 H   -1.260662160022    0.204138037865    5.566126810960
CS   -0.002994794532   -1.131352964670   -2.515229727798
