13

 C    1.437991619407    3.880477226773    6.019183644411
 H    1.472511619407    4.981329226773    6.019183644411
 H    1.962574619407    3.511332226773    6.912802644411
 H    1.962574619407    3.511332226773    5.125564644411
 C   -0.004788380593    3.403426226773    6.019183644411
 H   -0.543962380593    3.774579226773    5.124417644411
 H   -0.543962380593    3.774579226773    6.913949644411
 O   -0.004223380593    1.974919226773    6.019183644411
 C   -1.333810380593    1.464512226773    6.019183644411
 H   -1.887193380593    1.795291226773    5.120050644411
 H   -1.887193380593    1.795291226773    6.918316644411
 H   -1.260727380593    0.369037226773    6.019183644411
CS   -0.002965322562   -1.205867857363   -2.719957728898
