13

 C    1.437972984959    3.927591280747    6.148628453968
 H    1.472492984959    5.028443280747    6.148628453968
 H    1.962555984959    3.558446280747    7.042247453968
 H    1.962555984959    3.558446280747    5.255009453968
 C   -0.004807015041    3.450540280747    6.148628453968
 H   -0.543981015041    3.821693280747    5.253862453968
 H   -0.543981015041    3.821693280747    7.043394453968
 O   -0.004242015041    2.022033280747    6.148628453968
 C   -1.333829015041    1.511626280747    6.148628453968
 H   -1.887212015041    1.842405280747    5.249495453968
 H   -1.887212015041    1.842405280747    7.047761453968
 H   -1.260746015041    0.416151280747    6.148628453968
CS   -0.002956902000   -1.227157826704   -2.778451443498
