13

 C    1.437963667734    3.951148307734    6.213350858746
 H    1.472483667734    5.052000307734    6.213350858746
 H    1.962546667734    3.582003307734    7.106969858746
 H    1.962546667734    3.582003307734    5.319731858746
 C   -0.004816332266    3.474097307734    6.213350858746
 H   -0.543990332266    3.845250307734    5.318584858746
 H   -0.543990332266    3.845250307734    7.108116858746
 O   -0.004251332266    2.045590307734    6.213350858746
 C   -1.333838332266    1.535183307734    6.213350858746
 H   -1.887221332266    1.865962307734    5.314217858746
 H   -1.887221332266    1.865962307734    7.112483858746
 H   -1.260755332266    0.439708307734    6.213350858746
CS   -0.002952691718   -1.237802811374   -2.807698300798
