13

 C    1.437954350510    3.974705334721    6.278073263525
 H    1.472474350510    5.075557334721    6.278073263525
 H    1.962537350510    3.605560334721    7.171692263525
 H    1.962537350510    3.605560334721    5.384454263525
 C   -0.004825649490    3.497654334721    6.278073263525
 H   -0.543999649490    3.868807334721    5.383307263525
 H   -0.543999649490    3.868807334721    7.172839263525
 O   -0.004260649490    2.069147334721    6.278073263525
 C   -1.333847649490    1.558740334721    6.278073263525
 H   -1.887230649490    1.889519334721    5.378940263525
 H   -1.887230649490    1.889519334721    7.177206263525
 H   -1.260764649490    0.463265334721    6.278073263525
CS   -0.002948481437   -1.248447796045   -2.836945158098
