13

 C    1.437945033286    3.998262361708    6.342795668304
 H    1.472465033286    5.099114361708    6.342795668304
 H    1.962528033286    3.629117361708    7.236414668304
 H    1.962528033286    3.629117361708    5.449176668304
 C   -0.004834966714    3.521211361708    6.342795668304
 H   -0.544008966714    3.892364361708    5.448029668304
 H   -0.544008966714    3.892364361708    7.237561668304
 O   -0.004269966714    2.092704361708    6.342795668304
 C   -1.333856966714    1.582297361708    6.342795668304
 H   -1.887239966714    1.913076361708    5.443662668304
 H   -1.887239966714    1.913076361708    7.241928668304
 H   -1.260773966714    0.486822361708    6.342795668304
CS   -0.002944271156   -1.259092780715   -2.866192015398
