17

 C   -2.737219497719    1.246094014333    0.000000000000
 H   -3.666339497719    1.824904014333    0.000000000000
 H   -2.704849497719    0.611484014333    0.898470000000
 H   -2.704849497719    0.611484014333   -0.898470000000
 C   -1.576259497719    2.193654014333    0.000000000000
 O   -1.561259497719    3.393154014333    0.000000000000
 O   -0.325129497719    1.481334014333    0.000000000000
 H    0.349900502281    2.186884014333    0.000000000000
LI    0.079960502281   -0.364325985667    0.000000000000
 O    0.315778048611   -1.438751452995    0.000000000000
 H   -0.359248793199   -2.144296182503    0.000000000000
 C    1.566915037905   -2.151066217703    0.000000000000
 O    1.551915380272   -3.350572437058    0.000000000000
 C    2.727873042813   -1.203496401943    0.000000000000
 H    3.656989357198   -1.782308452563    0.000000000000
 H    2.695505889705   -0.568895085520   -0.898468557154
 H    2.695505889705   -0.568895085520    0.898468557154
