17

 C   -2.797982039593    1.522938648947    0.000000000000
 H   -3.727102039593    2.101748648947    0.000000000000
 H   -2.765612039593    0.888328648947    0.898470000000
 H   -2.765612039593    0.888328648947   -0.898470000000
 C   -1.637022039593    2.470498648947    0.000000000000
 O   -1.622022039593    3.669998648947    0.000000000000
 O   -0.385892039593    1.758178648947    0.000000000000
 H    0.289137960407    2.463728648947    0.000000000000
LI    0.019197960407   -0.087481351053    0.000000000000
 O    0.383643259281   -1.747957073287    0.000000000000
 H   -0.291383582529   -2.453501802795    0.000000000000
 C    1.634780248574   -2.460271837995    0.000000000000
 O    1.619780590941   -3.659778057350    0.000000000000
 C    2.795738253482   -1.512702022235    0.000000000000
 H    3.724854567868   -2.091514072855    0.000000000000
 H    2.763371100374   -0.878100705812   -0.898468557154
 H    2.763371100374   -0.878100705812    0.898468557154
