17

 C   -2.828363310530    1.661360966254    0.000000000000
 H   -3.757483310530    2.240170966254    0.000000000000
 H   -2.795993310530    1.026750966254    0.898470000000
 H   -2.795993310530    1.026750966254   -0.898470000000
 C   -1.667403310530    2.608920966254    0.000000000000
 O   -1.652403310530    3.808420966254    0.000000000000
 O   -0.416273310530    1.896600966254    0.000000000000
 H    0.258756689470    2.602150966254    0.000000000000
LI   -0.011183310530    0.050940966254    0.000000000000
 O    0.417575864616   -1.902559883433    0.000000000000
 H   -0.257450977195   -2.608104612941    0.000000000000
 C    1.668712853909   -2.614874648141    0.000000000000
 O    1.653713196276   -3.814380867496    0.000000000000
 C    2.829670858817   -1.667304832381    0.000000000000
 H    3.758787173203   -2.246116883001    0.000000000000
 H    2.797303705709   -1.032703515958   -0.898468557154
 H    2.797303705709   -1.032703515958    0.898468557154
