17

 C   -2.858744581468    1.799783283561    0.000000000000
 H   -3.787864581468    2.378593283561    0.000000000000
 H   -2.826374581468    1.165173283561    0.898470000000
 H   -2.826374581468    1.165173283561   -0.898470000000
 C   -1.697784581468    2.747343283561    0.000000000000
 O   -1.682784581468    3.946843283561    0.000000000000
 O   -0.446654581468    2.035023283561    0.000000000000
 H    0.228375418532    2.740573283561    0.000000000000
LI   -0.041564581468    0.189363283561    0.000000000000
 O    0.451508469950   -2.057162693579    0.000000000000
 H   -0.223518371860   -2.762707423087    0.000000000000
 C    1.702645459244   -2.769477458287    0.000000000000
 O    1.687645801611   -3.968983677642    0.000000000000
 C    2.863603464152   -1.821907642527    0.000000000000
 H    3.792719778537   -2.400719693147    0.000000000000
 H    2.831236311044   -1.187306326104   -0.898468557154
 H    2.831236311044   -1.187306326104    0.898468557154
