17

 C   -2.878998762092    1.892064828432    0.000000000000
 H   -3.808118762092    2.470874828432    0.000000000000
 H   -2.846628762092    1.257454828432    0.898470000000
 H   -2.846628762092    1.257454828432   -0.898470000000
 C   -1.718038762092    2.839624828432    0.000000000000
 O   -1.703038762092    4.039124828432    0.000000000000
 O   -0.466908762092    2.127304828432    0.000000000000
 H    0.208121237908    2.832854828432    0.000000000000
LI   -0.061818762092    0.281644828432    0.000000000000
 O    0.474130206840   -2.160231233677    0.000000000000
 H   -0.200896634970   -2.865775963184    0.000000000000
 C    1.725267196134   -2.872545998385    0.000000000000
 O    1.710267538501   -4.072052217740    0.000000000000
 C    2.886225201042   -1.924976182624    0.000000000000
 H    3.815341515427   -2.503788233244    0.000000000000
 H    2.853858047934   -1.290374866201   -0.898468557154
 H    2.853858047934   -1.290374866201    0.898468557154
