17

 C   -2.909380033029    2.030487145739    0.000000000000
 H   -3.838500033029    2.609297145739    0.000000000000
 H   -2.877010033029    1.395877145739    0.898470000000
 H   -2.877010033029    1.395877145739   -0.898470000000
 C   -1.748420033029    2.978047145739    0.000000000000
 O   -1.733420033029    4.177547145739    0.000000000000
 O   -0.497290033029    2.265727145739    0.000000000000
 H    0.177739966971    2.971277145739    0.000000000000
LI   -0.092200033029    0.420067145739    0.000000000000
 O    0.508062812175   -2.314834043823    0.000000000000
 H   -0.166964029635   -3.020378773330    0.000000000000
 C    1.759199801468   -3.027148808531    0.000000000000
 O    1.744200143835   -4.226655027886    0.000000000000
 C    2.920157806376   -2.079578992770    0.000000000000
 H    3.849274120762   -2.658391043390    0.000000000000
 H    2.887790653268   -1.444977676347   -0.898468557154
 H    2.887790653268   -1.444977676347    0.898468557154
