17

 C   -2.919507123342    2.076627918175    0.000000000000
 H   -3.848627123342    2.655437918175    0.000000000000
 H   -2.887137123342    1.442017918175    0.898470000000
 H   -2.887137123342    1.442017918175   -0.898470000000
 C   -1.758547123342    3.024187918175    0.000000000000
 O   -1.743547123342    4.223687918175    0.000000000000
 O   -0.507417123342    2.311867918175    0.000000000000
 H    0.167612876658    3.017417918175    0.000000000000
LI   -0.102327123342    0.466207918175    0.000000000000
 O    0.519373680620   -2.366368313871    0.000000000000
 H   -0.155653161190   -3.071913043379    0.000000000000
 C    1.770510669913   -3.078683078580    0.000000000000
 O    1.755511012280   -4.278189297934    0.000000000000
 C    2.931468674821   -2.131113262819    0.000000000000
 H    3.860584989207   -2.709925313439    0.000000000000
 H    2.899101521713   -1.496511946396   -0.898468557154
 H    2.899101521713   -1.496511946396    0.898468557154
