17

 C   -2.939761303967    2.168909463046    0.000000000000
 H   -3.868881303967    2.747719463046    0.000000000000
 H   -2.907391303967    1.534299463046    0.898470000000
 H   -2.907391303967    1.534299463046   -0.898470000000
 C   -1.778801303967    3.116469463046    0.000000000000
 O   -1.763801303967    4.315969463046    0.000000000000
 O   -0.527671303967    2.404149463046    0.000000000000
 H    0.147358696033    3.109699463046    0.000000000000
LI   -0.122581303967    0.558489463046    0.000000000000
 O    0.541995417509   -2.469436853969    0.000000000000
 H   -0.133031424301   -3.174981583476    0.000000000000
 C    1.793132406803   -3.181751618677    0.000000000000
 O    1.778132749170   -4.381257838032    0.000000000000
 C    2.954090411711   -2.234181802916    0.000000000000
 H    3.883206726097   -2.812993853536    0.000000000000
 H    2.921723258603   -1.599580486494   -0.898468557154
 H    2.921723258603   -1.599580486494    0.898468557154
