17

 C   -2.990396755529    2.399613325225    0.000000000000
 H   -3.919516755529    2.978423325225    0.000000000000
 H   -2.958026755529    1.765003325225    0.898470000000
 H   -2.958026755529    1.765003325225   -0.898470000000
 C   -1.829436755529    3.347173325225    0.000000000000
 O   -1.814436755529    4.546673325225    0.000000000000
 O   -0.578306755529    2.634853325225    0.000000000000
 H    0.096723244471    3.340403325225    0.000000000000
LI   -0.173216755529    0.789193325225    0.000000000000
 O    0.598549759734   -2.727108204212    0.000000000000
 H   -0.076477082076   -3.432652933720    0.000000000000
 C    1.849686749028   -3.439422968920    0.000000000000
 O    1.834687091395   -4.638929188275    0.000000000000
 C    3.010644753936   -2.491853153160    0.000000000000
 H    3.939761068321   -3.070665203780    0.000000000000
 H    2.978277600827   -1.857251836737   -0.898468557154
 H    2.978277600827   -1.857251836737    0.898468557154
