17

 C   -3.010650936153    2.491894870096    0.000000000000
 H   -3.939770936153    3.070704870096    0.000000000000
 H   -2.978280936153    1.857284870096    0.898470000000
 H   -2.978280936153    1.857284870096   -0.898470000000
 C   -1.849690936153    3.439454870096    0.000000000000
 O   -1.834690936153    4.638954870096    0.000000000000
 O   -0.598560936153    2.727134870096    0.000000000000
 H    0.076469063847    3.432684870096    0.000000000000
LI   -0.193470936153    0.881474870096    0.000000000000
 O    0.621171496624   -2.830176744310    0.000000000000
 H   -0.053855345186   -3.535721473817    0.000000000000
 C    1.872308485917   -3.542491509018    0.000000000000
 O    1.857308828284   -4.741997728372    0.000000000000
 C    3.033266490825   -2.594921693257    0.000000000000
 H    3.962382805211   -3.173733743877    0.000000000000
 H    3.000899337717   -1.960320376834   -0.898468557154
 H    3.000899337717   -1.960320376834    0.898468557154
