17

 C   -3.020778026466    2.538035642532    0.000000000000
 H   -3.949898026466    3.116845642532    0.000000000000
 H   -2.988408026466    1.903425642532    0.898470000000
 H   -2.988408026466    1.903425642532   -0.898470000000
 C   -1.859818026466    3.485595642532    0.000000000000
 O   -1.844818026466    4.685095642532    0.000000000000
 O   -0.608688026466    2.773275642532    0.000000000000
 H    0.066341973534    3.478825642532    0.000000000000
LI   -0.203598026466    0.927615642532    0.000000000000
 O    0.632482365069   -2.881711014358    0.000000000000
 H   -0.042544476741   -3.587255743866    0.000000000000
 C    1.883619354362   -3.594025779066    0.000000000000
 O    1.868619696729   -4.793531998421    0.000000000000
 C    3.044577359270   -2.646455963306    0.000000000000
 H    3.973693673656   -3.225268013926    0.000000000000
 H    3.012210206162   -2.011854646883   -0.898468557154
 H    3.012210206162   -2.011854646883    0.898468557154
