17

 C   -3.051159297403    2.676457959839    0.000000000000
 H   -3.980279297403    3.255267959839    0.000000000000
 H   -3.018789297403    2.041847959839    0.898470000000
 H   -3.018789297403    2.041847959839   -0.898470000000
 C   -1.890199297403    3.624017959839    0.000000000000
 O   -1.875199297403    4.823517959839    0.000000000000
 O   -0.639069297403    2.911697959839    0.000000000000
 H    0.035960702597    3.617247959839    0.000000000000
LI   -0.233979297403    1.066037959839    0.000000000000
 O    0.666414970403   -3.036313824504    0.000000000000
 H   -0.008611871407   -3.741858554012    0.000000000000
 C    1.917551959697   -3.748628589212    0.000000000000
 O    1.902552302064   -4.948134808567    0.000000000000
 C    3.078509964605   -2.801058773452    0.000000000000
 H    4.007626278990   -3.379870824072    0.000000000000
 H    3.046142811497   -2.166457457029   -0.898468557154
 H    3.046142811497   -2.166457457029    0.898468557154
