17

 C   -3.081540568340    2.814880277146    0.000000000000
 H   -4.010660568340    3.393690277146    0.000000000000
 H   -3.049170568340    2.180270277146    0.898470000000
 H   -3.049170568340    2.180270277146   -0.898470000000
 C   -1.920580568340    3.762440277146    0.000000000000
 O   -1.905580568340    4.961940277146    0.000000000000
 O   -0.669450568340    3.050120277146    0.000000000000
 H    0.005579431660    3.755670277146    0.000000000000
LI   -0.264360568340    1.204460277146    0.000000000000
 O    0.700347575738   -3.190916634650    0.000000000000
 H    0.025320733928   -3.896461364158    0.000000000000
 C    1.951484565032   -3.903231399358    0.000000000000
 O    1.936484907399   -5.102737618713    0.000000000000
 C    3.112442569940   -2.955661583598    0.000000000000
 H    4.041558884325   -3.534473634218    0.000000000000
 H    3.080075416832   -2.321060267175   -0.898468557154
 H    3.080075416832   -2.321060267175    0.898468557154
