17

 C   -3.122048929590    2.999443366888    0.000000000000
 H   -4.051168929590    3.578253366888    0.000000000000
 H   -3.089678929590    2.364833366888    0.898470000000
 H   -3.089678929590    2.364833366888   -0.898470000000
 C   -1.961088929590    3.947003366888    0.000000000000
 O   -1.946088929590    5.146503366888    0.000000000000
 O   -0.709958929590    3.234683366888    0.000000000000
 H   -0.034928929590    3.940233366888    0.000000000000
LI   -0.304868929590    1.389023366888    0.000000000000
 O    0.745591049518   -3.397053714845    0.000000000000
 H    0.070564207708   -4.102598444353    0.000000000000
 C    1.996728038811   -4.109368479553    0.000000000000
 O    1.981728381178   -5.308874698908    0.000000000000
 C    3.157686043719   -3.161798663793    0.000000000000
 H    4.086802358105   -3.740610714412    0.000000000000
 H    3.125318890611   -2.527197347370   -0.898468557154
 H    3.125318890611   -2.527197347370    0.898468557154
