17

 C   -3.172684381152    3.230147229067    0.000000000000
 H   -4.101804381152    3.808957229067    0.000000000000
 H   -3.140314381152    2.595537229067    0.898470000000
 H   -3.140314381152    2.595537229067   -0.898470000000
 C   -2.011724381152    4.177707229067    0.000000000000
 O   -1.996724381152    5.377207229067    0.000000000000
 O   -0.760594381152    3.465387229067    0.000000000000
 H   -0.085564381152    4.170937229067    0.000000000000
LI   -0.355504381152    1.619727229067    0.000000000000
 O    0.802145391742   -3.654725065088    0.000000000000
 H    0.127118549932   -4.360269794596    0.000000000000
 C    2.053282381036   -4.367039829796    0.000000000000
 O    2.038282723403   -5.566546049151    0.000000000000
 C    3.214240385944   -3.419470014036    0.000000000000
 H    4.143356700329   -3.998282064656    0.000000000000
 H    3.181873232836   -2.784868697613   -0.898468557154
 H    3.181873232836   -2.784868697613    0.898468557154
