17

 C   -3.192938561776    3.322428773938    0.000000000000
 H   -4.122058561776    3.901238773938    0.000000000000
 H   -3.160568561776    2.687818773938    0.898470000000
 H   -3.160568561776    2.687818773938   -0.898470000000
 C   -2.031978561776    4.269988773938    0.000000000000
 O   -2.016978561776    5.469488773938    0.000000000000
 O   -0.780848561776    3.557668773938    0.000000000000
 H   -0.105818561776    4.263218773938    0.000000000000
LI   -0.375758561776    1.712008773938    0.000000000000
 O    0.824767128632   -3.757793605186    0.000000000000
 H    0.149740286822   -4.463338334693    0.000000000000
 C    2.075904117926   -4.470108369894    0.000000000000
 O    2.060904460293   -5.669614589249    0.000000000000
 C    3.236862122834   -3.522538554133    0.000000000000
 H    4.165978437219   -4.101350604753    0.000000000000
 H    3.204494969726   -2.887937237710   -0.898468557154
 H    3.204494969726   -2.887937237710    0.898468557154
