17

 C   -3.233446923026    3.506991863681    0.000000000000
 H   -4.162566923026    4.085801863681    0.000000000000
 H   -3.201076923026    2.872381863681    0.898470000000
 H   -3.201076923026    2.872381863681   -0.898470000000
 C   -2.072486923026    4.454551863681    0.000000000000
 O   -2.057486923026    5.654051863681    0.000000000000
 O   -0.821356923026    3.742231863681    0.000000000000
 H   -0.146326923026    4.447781863681    0.000000000000
LI   -0.416266923026    1.896571863681    0.000000000000
 O    0.870010602412   -3.963930685380    0.000000000000
 H    0.194983760602   -4.669475414888    0.000000000000
 C    2.121147591705   -4.676245450088    0.000000000000
 O    2.106147934072   -5.875751669443    0.000000000000
 C    3.282105596613   -3.728675634328    0.000000000000
 H    4.211221910999   -4.307487684948    0.000000000000
 H    3.249738443505   -3.094074317905   -0.898468557154
 H    3.249738443505   -3.094074317905    0.898468557154
