17

 C   -3.243574013338    3.553132636117    0.000000000000
 H   -4.172694013338    4.131942636117    0.000000000000
 H   -3.211204013338    2.918522636117    0.898470000000
 H   -3.211204013338    2.918522636117   -0.898470000000
 C   -2.082614013338    4.500692636117    0.000000000000
 O   -2.067614013338    5.700192636117    0.000000000000
 O   -0.831484013338    3.788372636117    0.000000000000
 H   -0.156454013338    4.493922636117    0.000000000000
LI   -0.426394013338    1.942712636117    0.000000000000
 O    0.881321470857   -4.015464955429    0.000000000000
 H    0.206294629046   -4.721009684937    0.000000000000
 C    2.132458460150   -4.727779720137    0.000000000000
 O    2.117458802517   -5.927285939492    0.000000000000
 C    3.293416465058   -3.780209904377    0.000000000000
 H    4.222532779444   -4.359021954997    0.000000000000
 H    3.261049311950   -3.145608587954   -0.898468557154
 H    3.261049311950   -3.145608587954    0.898468557154
