17

 C   -3.324590735838    3.922258815602    0.000000000000
 H   -4.253710735838    4.501068815602    0.000000000000
 H   -3.292220735838    3.287648815602    0.898470000000
 H   -3.292220735838    3.287648815602   -0.898470000000
 C   -2.163630735838    4.869818815602    0.000000000000
 O   -2.148630735838    6.069318815602    0.000000000000
 O   -0.912500735838    4.157498815602    0.000000000000
 H   -0.237470735838    4.863048815602    0.000000000000
LI   -0.507410735838    2.311838815602    0.000000000000
 O    0.971808418416   -4.427739115818    0.000000000000
 H    0.296781576606   -5.133283845326    0.000000000000
 C    2.222945407709   -5.140053880527    0.000000000000
 O    2.207945750076   -6.339560099881    0.000000000000
 C    3.383903412617   -4.192484064766    0.000000000000
 H    4.313019727003   -4.771296115386    0.000000000000
 H    3.351536259509   -3.557882748343   -0.898468557154
 H    3.351536259509   -3.557882748343    0.898468557154
