17

 C   -3.365099097087    4.106821905345    0.000000000000
 H   -4.294219097087    4.685631905345    0.000000000000
 H   -3.332729097087    3.472211905345    0.898470000000
 H   -3.332729097087    3.472211905345   -0.898470000000
 C   -2.204139097087    5.054381905345    0.000000000000
 O   -2.189139097087    6.253881905345    0.000000000000
 O   -0.953009097087    4.342061905345    0.000000000000
 H   -0.277979097087    5.047611905345    0.000000000000
LI   -0.547919097087    2.496401905345    0.000000000000
 O    1.017051892195   -4.633876196013    0.000000000000
 H    0.342025050385   -5.339420925521    0.000000000000
 C    2.268188881489   -5.346190960721    0.000000000000
 O    2.253189223856   -6.545697180076    0.000000000000
 C    3.429146886397   -4.398621144961    0.000000000000
 H    4.358263200782   -4.977433195581    0.000000000000
 H    3.396779733289   -3.764019828538   -0.898468557154
 H    3.396779733289   -3.764019828538    0.898468557154
