17

 C   -3.435988729274    4.429807312394    0.000000000000
 H   -4.365108729274    5.008617312394    0.000000000000
 H   -3.403618729274    3.795197312394    0.898470000000
 H   -3.403618729274    3.795197312394   -0.898470000000
 C   -2.275028729274    5.377367312394    0.000000000000
 O   -2.260028729274    6.576867312394    0.000000000000
 O   -1.023898729274    4.665047312394    0.000000000000
 H   -0.348868729274    5.370597312394    0.000000000000
LI   -0.618808729274    2.819387312394    0.000000000000
 O    1.096227971310   -4.994616086354    0.000000000000
 H    0.421201129500   -5.700160815862    0.000000000000
 C    2.347364960603   -5.706930851062    0.000000000000
 O    2.332365302970   -6.906437070417    0.000000000000
 C    3.508322965511   -4.759361035302    0.000000000000
 H    4.437439279897   -5.338173085921    0.000000000000
 H    3.475955812403   -4.124759718879   -0.898468557154
 H    3.475955812403   -4.124759718879    0.898468557154
