17

 C   -3.446115819586    4.475948084830    0.000000000000
 H   -4.375235819586    5.054758084830    0.000000000000
 H   -3.413745819586    3.841338084830    0.898470000000
 H   -3.413745819586    3.841338084830   -0.898470000000
 C   -2.285155819586    5.423508084830    0.000000000000
 O   -2.270155819586    6.623008084830    0.000000000000
 O   -1.034025819586    4.711188084830    0.000000000000
 H   -0.358995819586    5.416738084830    0.000000000000
LI   -0.628935819586    2.865528084830    0.000000000000
 O    1.107538839755   -5.046150356403    0.000000000000
 H    0.432511997945   -5.751695085910    0.000000000000
 C    2.358675829048   -5.758465121111    0.000000000000
 O    2.343676171415   -6.957971340466    0.000000000000
 C    3.519633833956   -4.810895305350    0.000000000000
 H    4.448750148342   -5.389707355970    0.000000000000
 H    3.487266680848   -4.176293988927   -0.898468557154
 H    3.487266680848   -4.176293988927    0.898468557154
