17

 C   -3.466370000211    4.568229629702    0.000000000000
 H   -4.395490000211    5.147039629702    0.000000000000
 H   -3.434000000211    3.933619629702    0.898470000000
 H   -3.434000000211    3.933619629702   -0.898470000000
 C   -2.305410000211    5.515789629702    0.000000000000
 O   -2.290410000211    6.715289629702    0.000000000000
 O   -1.054280000211    4.803469629702    0.000000000000
 H   -0.379250000211    5.509019629702    0.000000000000
LI   -0.649190000211    2.957809629702    0.000000000000
 O    1.130160576644   -5.149218896500    0.000000000000
 H    0.455133734834   -5.854763626008    0.000000000000
 C    2.381297565938   -5.861533661208    0.000000000000
 O    2.366297908305   -7.061039880563    0.000000000000
 C    3.542255570846   -4.913963845448    0.000000000000
 H    4.471371885231   -5.492775896067    0.000000000000
 H    3.509888417738   -4.279362529025   -0.898468557154
 H    3.509888417738   -4.279362529025    0.898468557154
