17

 C   -3.476497090523    4.614370402137    0.000000000000
 H   -4.405617090523    5.193180402137    0.000000000000
 H   -3.444127090523    3.979760402137    0.898470000000
 H   -3.444127090523    3.979760402137   -0.898470000000
 C   -2.315537090523    5.561930402137    0.000000000000
 O   -2.300537090523    6.761430402137    0.000000000000
 O   -1.064407090523    4.849610402137    0.000000000000
 H   -0.389377090523    5.555160402137    0.000000000000
LI   -0.659317090523    3.003950402137    0.000000000000
 O    1.141471445089   -5.200753166549    0.000000000000
 H    0.466444603279   -5.906297896056    0.000000000000
 C    2.392608434383   -5.913067931257    0.000000000000
 O    2.377608776750   -7.112574150612    0.000000000000
 C    3.553566439291   -4.965498115496    0.000000000000
 H    4.482682753676   -5.544310166116    0.000000000000
 H    3.521199286183   -4.330896799073   -0.898468557154
 H    3.521199286183   -4.330896799073    0.898468557154
