17

 C   -3.486624180836    4.660511174573    0.000000000000
 H   -4.415744180836    5.239321174573    0.000000000000
 H   -3.454254180836    4.025901174573    0.898470000000
 H   -3.454254180836    4.025901174573   -0.898470000000
 C   -2.325664180836    5.608071174573    0.000000000000
 O   -2.310664180836    6.807571174573    0.000000000000
 O   -1.074534180836    4.895751174573    0.000000000000
 H   -0.399504180836    5.601301174573    0.000000000000
LI   -0.669444180836    3.050091174573    0.000000000000
 O    1.152782313534   -5.252287436597    0.000000000000
 H    0.477755471724   -5.957832166105    0.000000000000
 C    2.403919302828   -5.964602201305    0.000000000000
 O    2.388919645195   -7.164108420660    0.000000000000
 C    3.564877307736   -5.017032385545    0.000000000000
 H    4.493993622121   -5.595844436165    0.000000000000
 H    3.532510154628   -4.382431069122   -0.898468557154
 H    3.532510154628   -4.382431069122    0.898468557154
