17

 C   -3.506878361461    4.752792719444    0.000000000000
 H   -4.435998361461    5.331602719444    0.000000000000
 H   -3.474508361461    4.118182719444    0.898470000000
 H   -3.474508361461    4.118182719444   -0.898470000000
 C   -2.345918361461    5.700352719444    0.000000000000
 O   -2.330918361461    6.899852719444    0.000000000000
 O   -1.094788361461    4.988032719444    0.000000000000
 H   -0.419758361461    5.693582719444    0.000000000000
LI   -0.689698361461    3.142372719444    0.000000000000
 O    1.175404050424   -5.355355976695    0.000000000000
 H    0.500377208614   -6.060900706202    0.000000000000
 C    2.426541039718   -6.067670741403    0.000000000000
 O    2.411541382085   -7.267176960758    0.000000000000
 C    3.587499044626   -5.120100925642    0.000000000000
 H    4.516615359011   -5.698912976262    0.000000000000
 H    3.555131891517   -4.485499609219   -0.898468557154
 H    3.555131891517   -4.485499609219    0.898468557154
