17

 C   -3.537259632398    4.891215036751    0.000000000000
 H   -4.466379632398    5.470025036751    0.000000000000
 H   -3.504889632398    4.256605036751    0.898470000000
 H   -3.504889632398    4.256605036751   -0.898470000000
 C   -2.376299632398    5.838775036751    0.000000000000
 O   -2.361299632398    7.038275036751    0.000000000000
 O   -1.125169632398    5.126455036751    0.000000000000
 H   -0.450139632398    5.832005036751    0.000000000000
LI   -0.720079632398    3.280795036751    0.000000000000
 O    1.209336655759   -5.509958786841    0.000000000000
 H    0.534309813949   -6.215503516348    0.000000000000
 C    2.460473645052   -6.222273551549    0.000000000000
 O    2.445473987419   -7.421779770904    0.000000000000
 C    3.621431649960   -5.274703735788    0.000000000000
 H    4.550547964346   -5.853515786408    0.000000000000
 H    3.589064496852   -4.640102419365   -0.898468557154
 H    3.589064496852   -4.640102419365    0.898468557154
