17

 C   -3.598022174272    5.168059671365    0.000000000000
 H   -4.527142174272    5.746869671365    0.000000000000
 H   -3.565652174272    4.533449671365    0.898470000000
 H   -3.565652174272    4.533449671365   -0.898470000000
 C   -2.437062174272    6.115619671365    0.000000000000
 O   -2.422062174272    7.315119671365    0.000000000000
 O   -1.185932174272    5.403299671365    0.000000000000
 H   -0.510902174272    6.108849671365    0.000000000000
LI   -0.780842174272    3.557639671365    0.000000000000
 O    1.277201866428   -5.819164407133    0.000000000000
 H    0.602175024618   -6.524709136640    0.000000000000
 C    2.528338855722   -6.531479171841    0.000000000000
 O    2.513339198089   -7.730985391196    0.000000000000
 C    3.689296860630   -5.583909356080    0.000000000000
 H    4.618413175015   -6.162721406700    0.000000000000
 H    3.656929707522   -4.949308039657   -0.898468557154
 H    3.656929707522   -4.949308039657    0.898468557154
