17

 C   -3.618276354897    5.260341216237    0.000000000000
 H   -4.547396354897    5.839151216237    0.000000000000
 H   -3.585906354897    4.625731216237    0.898470000000
 H   -3.585906354897    4.625731216237   -0.898470000000
 C   -2.457316354897    6.207901216237    0.000000000000
 O   -2.442316354897    7.407401216237    0.000000000000
 O   -1.206186354897    5.495581216237    0.000000000000
 H   -0.531156354897    6.201131216237    0.000000000000
LI   -0.801096354897    3.649921216237    0.000000000000
 O    1.299823603318   -5.922232947230    0.000000000000
 H    0.624796761508   -6.627777676738    0.000000000000
 C    2.550960592612   -6.634547711938    0.000000000000
 O    2.535960934979   -7.834053931293    0.000000000000
 C    3.711918597519   -5.686977896178    0.000000000000
 H    4.641034911905   -6.265789946798    0.000000000000
 H    3.679551444411   -5.052376579755   -0.898468557154
 H    3.679551444411   -5.052376579755    0.898468557154
