13

 H    0.093803537553    3.492436361969    0.000000000000
 H    1.636353537553    3.622166361969    0.906270000000
 H    1.636353537553    3.622166361969   -0.906270000000
 C    1.159633537553    3.234516361969    0.000000000000
 S    1.250463537553    1.411036361969    0.000000000000
 H    2.578663537553    1.209076361969    0.000000000000
LI   -0.280876462447   -0.316943638031    0.000000000000
 S   -1.209412361339   -1.364713214068    0.000000000000
 H   -2.537605367298   -1.162752548286    0.000000000000
 C   -1.118581825230   -3.188192405425    0.000000000000
 H   -0.052745409891   -3.446115447702    0.000000000000
 H   -1.595294977297   -3.575842092129   -0.906268225993
 H   -1.595294977297   -3.575842092129    0.906268225993
