13

 H    0.186514381728    3.597052243822    0.000000000000
 H    1.729064381728    3.726782243822    0.906270000000
 H    1.729064381728    3.726782243822   -0.906270000000
 C    1.252344381728    3.339132243822    0.000000000000
 S    1.343174381728    1.515652243822    0.000000000000
 H    2.671374381728    1.313692243822    0.000000000000
LI   -0.188165618272   -0.212327756178    0.000000000000
 S   -1.315673495498   -1.484619384222    0.000000000000
 H   -2.643866501457   -1.282658718440    0.000000000000
 C   -1.224842959389   -3.308098575579    0.000000000000
 H   -0.159006544050   -3.566021617856    0.000000000000
 H   -1.701556111456   -3.695748262283   -0.906268225993
 H   -1.701556111456   -3.695748262283    0.906268225993
