13

 H    0.402839684804    3.841155968148    0.000000000000
 H    1.945389684804    3.970885968148    0.906270000000
 H    1.945389684804    3.970885968148   -0.906270000000
 C    1.468669684804    3.583235968148    0.000000000000
 S    1.559499684804    1.759755968148    0.000000000000
 H    2.887699684804    1.557795968148    0.000000000000
LI    0.028159684804    0.031775968148    0.000000000000
 S   -1.563616141869   -1.764400447915    0.000000000000
 H   -2.891809147827   -1.562439782133    0.000000000000
 C   -1.472785605759   -3.587879639271    0.000000000000
 H   -0.406949190421   -3.845802681549    0.000000000000
 H   -1.949498757827   -3.975529325975   -0.906268225993
 H   -1.949498757827   -3.975529325975    0.906268225993
