13

 H    0.464646914254    3.910899889384    0.000000000000
 H    2.007196914254    4.040629889384    0.906270000000
 H    2.007196914254    4.040629889384   -0.906270000000
 C    1.530476914254    3.652979889384    0.000000000000
 S    1.621306914254    1.829499889384    0.000000000000
 H    2.949506914254    1.627539889384    0.000000000000
LI    0.089966914254    0.101519889384    0.000000000000
 S   -1.634456897974   -1.844337894684    0.000000000000
 H   -2.962649903933   -1.642377228902    0.000000000000
 C   -1.543626361865   -3.667817086041    0.000000000000
 H   -0.477789946526   -3.925740128318    0.000000000000
 H   -2.020339513932   -4.055466772745   -0.906268225993
 H   -2.020339513932   -4.055466772745    0.906268225993
