13

 H    0.588261373155    4.050387731856    0.000000000000
 H    2.130811373155    4.180117731856    0.906270000000
 H    2.130811373155    4.180117731856   -0.906270000000
 C    1.654091373155    3.792467731856    0.000000000000
 S    1.744921373155    1.968987731856    0.000000000000
 H    3.073121373155    1.767027731856    0.000000000000
LI    0.213581373155    0.241007731856    0.000000000000
 S   -1.776138410186   -2.004212788223    0.000000000000
 H   -3.104331416145   -1.802252122441    0.000000000000
 C   -1.685307874077   -3.827691979580    0.000000000000
 H   -0.619471458738   -4.085615021857    0.000000000000
 H   -2.162021026144   -4.215341666283   -0.906268225993
 H   -2.162021026144   -4.215341666283    0.906268225993
