13

 H    0.650068602605    4.120131653092    0.000000000000
 H    2.192618602605    4.249861653092    0.906270000000
 H    2.192618602605    4.249861653092   -0.906270000000
 C    1.715898602605    3.862211653092    0.000000000000
 S    1.806728602605    2.038731653092    0.000000000000
 H    3.134928602605    1.836771653092    0.000000000000
LI    0.275388602605    0.310751653092    0.000000000000
 S   -1.846979166292   -2.084150234992    0.000000000000
 H   -3.175172172250   -1.882189569210    0.000000000000
 C   -1.756148630183   -3.907629426349    0.000000000000
 H   -0.690312214844   -4.165552468626    0.000000000000
 H   -2.232861782250   -4.295279113053   -0.906268225993
 H   -2.232861782250   -4.295279113053    0.906268225993
