13

 H    0.990008364581    4.503723219889    0.000000000000
 H    2.532558364581    4.633453219889    0.906270000000
 H    2.532558364581    4.633453219889   -0.906270000000
 C    2.055838364581    4.245803219889    0.000000000000
 S    2.146668364581    2.422323219889    0.000000000000
 H    3.474868364581    2.220363219889    0.000000000000
LI    0.615328364581    0.694343219889    0.000000000000
 S   -2.236603324874   -2.523806192224    0.000000000000
 H   -3.564796330833   -2.321845526442    0.000000000000
 C   -2.145772788765   -4.347285383580    0.000000000000
 H   -1.079936373426   -4.605208425858    0.000000000000
 H   -2.622485940832   -4.734935070284   -0.906268225993
 H   -2.622485940832   -4.734935070284    0.906268225993
