13

 H    1.453562585457    5.026802629158    0.000000000000
 H    2.996112585457    5.156532629158    0.906270000000
 H    2.996112585457    5.156532629158   -0.906270000000
 C    2.519392585457    4.768882629158    0.000000000000
 S    2.610222585457    2.945402629158    0.000000000000
 H    3.938422585457    2.743442629158    0.000000000000
LI    1.078882585457    1.217422629158    0.000000000000
 S   -2.767908995668   -3.123337042994    0.000000000000
 H   -4.096102001627   -2.921376377212    0.000000000000
 C   -2.677078459559   -4.946816234351    0.000000000000
 H   -1.611242044220   -5.204739276628    0.000000000000
 H   -3.153791611626   -5.334465921054   -0.906268225993
 H   -3.153791611626   -5.334465921054    0.906268225993
