13

 H    1.515369814908    5.096546550394    0.000000000000
 H    3.057919814908    5.226276550394    0.906270000000
 H    3.057919814908    5.226276550394   -0.906270000000
 C    2.581199814908    4.838626550394    0.000000000000
 S    2.672029814908    3.015146550394    0.000000000000
 H    4.000229814908    2.813186550394    0.000000000000
LI    1.140689814908    1.287166550394    0.000000000000
 S   -2.838749751774   -3.203274489763    0.000000000000
 H   -4.166942757732   -3.001313823981    0.000000000000
 C   -2.747919215665   -5.026753681120    0.000000000000
 H   -1.682082800326   -5.284676723397    0.000000000000
 H   -3.224632367732   -5.414403367824   -0.906268225993
 H   -3.224632367732   -5.414403367824    0.906268225993
