13

 H    1.577177044358    5.166290471630    0.000000000000
 H    3.119727044358    5.296020471630    0.906270000000
 H    3.119727044358    5.296020471630   -0.906270000000
 C    2.643007044358    4.908370471630    0.000000000000
 S    2.733837044358    3.084890471630    0.000000000000
 H    4.062037044358    2.882930471630    0.000000000000
LI    1.202497044358    1.356910471630    0.000000000000
 S   -2.909590507880   -3.283211936533    0.000000000000
 H   -4.237783513838   -3.081251270751    0.000000000000
 C   -2.818759971771   -5.106691127889    0.000000000000
 H   -1.752923556432   -5.364614170167    0.000000000000
 H   -3.295473123838   -5.494340814593   -0.906268225993
 H   -3.295473123838   -5.494340814593    0.906268225993
