13

 H    1.669887888533    5.270906353484    0.000000000000
 H    3.212437888533    5.400636353484    0.906270000000
 H    3.212437888533    5.400636353484   -0.906270000000
 C    2.735717888533    5.012986353484    0.000000000000
 S    2.826547888533    3.189506353484    0.000000000000
 H    4.154747888533    2.987546353484    0.000000000000
LI    1.295207888533    1.461526353484    0.000000000000
 S   -3.015851642039   -3.403118106687    0.000000000000
 H   -4.344044647997   -3.201157440905    0.000000000000
 C   -2.925021105929   -5.226597298043    0.000000000000
 H   -1.859184690591   -5.484520340321    0.000000000000
 H   -3.401734257997   -5.614246984747   -0.906268225993
 H   -3.401734257997   -5.614246984747    0.906268225993
