13

 H    1.731695117983    5.340650274720    0.000000000000
 H    3.274245117983    5.470380274720    0.906270000000
 H    3.274245117983    5.470380274720   -0.906270000000
 C    2.797525117983    5.082730274720    0.000000000000
 S    2.888355117983    3.259250274720    0.000000000000
 H    4.216555117983    3.057290274720    0.000000000000
LI    1.357015117983    1.531270274720    0.000000000000
 S   -3.086692398144   -3.483055553456    0.000000000000
 H   -4.414885404103   -3.281094887674    0.000000000000
 C   -2.995861862035   -5.306534744813    0.000000000000
 H   -1.930025446696   -5.564457787090    0.000000000000
 H   -3.472575014102   -5.694184431516   -0.906268225993
 H   -3.472575014102   -5.694184431516    0.906268225993
