13

 H    1.793502347434    5.410394195955    0.000000000000
 H    3.336052347434    5.540124195955    0.906270000000
 H    3.336052347434    5.540124195955   -0.906270000000
 C    2.859332347434    5.152474195955    0.000000000000
 S    2.950162347434    3.328994195955    0.000000000000
 H    4.278362347434    3.127034195955    0.000000000000
LI    1.418822347434    1.601014195955    0.000000000000
 S   -3.157533154250   -3.562993000225    0.000000000000
 H   -4.485726160209   -3.361032334444    0.000000000000
 C   -3.066702618141   -5.386472191582    0.000000000000
 H   -2.000866202802   -5.644395233860    0.000000000000
 H   -3.543415770208   -5.774121878286   -0.906268225993
 H   -3.543415770208   -5.774121878286    0.906268225993
