13

 H    1.824405962159    5.445266156573    0.000000000000
 H    3.366955962159    5.574996156573    0.906270000000
 H    3.366955962159    5.574996156573   -0.906270000000
 C    2.890235962159    5.187346156573    0.000000000000
 S    2.981065962159    3.363866156573    0.000000000000
 H    4.309265962159    3.161906156573    0.000000000000
LI    1.449725962159    1.635886156573    0.000000000000
 S   -3.192953532303   -3.602961723610    0.000000000000
 H   -4.521146538262   -3.401001057828    0.000000000000
 C   -3.102122996194   -5.426440914967    0.000000000000
 H   -2.036286580855   -5.684363957244    0.000000000000
 H   -3.578836148261   -5.814090601670   -0.906268225993
 H   -3.578836148261   -5.814090601670    0.906268225993
