13

 H    1.948020421059    5.584753999045    0.000000000000
 H    3.490570421059    5.714483999045    0.906270000000
 H    3.490570421059    5.714483999045   -0.906270000000
 C    3.013850421059    5.326833999045    0.000000000000
 S    3.104680421059    3.503353999045    0.000000000000
 H    4.432880421059    3.301393999045    0.000000000000
LI    1.573340421059    1.775373999045    0.000000000000
 S   -3.334635044515   -3.762836617149    0.000000000000
 H   -4.662828050473   -3.560875951367    0.000000000000
 C   -3.243804508406   -5.586315808505    0.000000000000
 H   -2.177968093067   -5.844238850783    0.000000000000
 H   -3.720517660473   -5.973965495209   -0.906268225993
 H   -3.720517660473   -5.973965495209    0.906268225993
