13

 H    2.009827650509    5.654497920281    0.000000000000
 H    3.552377650509    5.784227920281    0.906270000000
 H    3.552377650509    5.784227920281   -0.906270000000
 C    3.075657650509    5.396577920281    0.000000000000
 S    3.166487650509    3.573097920281    0.000000000000
 H    4.494687650509    3.371137920281    0.000000000000
LI    1.635147650509    1.845117920281    0.000000000000
 S   -3.405475800621   -3.842774063918    0.000000000000
 H   -4.733668806579   -3.640813398136    0.000000000000
 C   -3.314645264512   -5.666253255275    0.000000000000
 H   -2.248808849173   -5.924176297552    0.000000000000
 H   -3.791358416579   -6.053902941979   -0.906268225993
 H   -3.791358416579   -6.053902941979    0.906268225993
