13

 H    2.102538494685    5.759113802135    0.000000000000
 H    3.645088494685    5.888843802135    0.906270000000
 H    3.645088494685    5.888843802135   -0.906270000000
 C    3.168368494685    5.501193802135    0.000000000000
 S    3.259198494685    3.677713802135    0.000000000000
 H    4.587398494685    3.475753802135    0.000000000000
LI    1.727858494685    1.949733802135    0.000000000000
 S   -3.511736934779   -3.962680234072    0.000000000000
 H   -4.839929940738   -3.760719568290    0.000000000000
 C   -3.420906398670   -5.786159425429    0.000000000000
 H   -2.355069983331   -6.044082467706    0.000000000000
 H   -3.897619550737   -6.173809112133   -0.906268225993
 H   -3.897619550737   -6.173809112133    0.906268225993
