13

 H    2.133442109410    5.793985762753    0.000000000000
 H    3.675992109410    5.923715762753    0.906270000000
 H    3.675992109410    5.923715762753   -0.906270000000
 C    3.199272109410    5.536065762753    0.000000000000
 S    3.290102109410    3.712585762753    0.000000000000
 H    4.618302109410    3.510625762753    0.000000000000
LI    1.758762109410    1.984605762753    0.000000000000
 S   -3.547157312832   -4.002648957457    0.000000000000
 H   -4.875350318791   -3.800688291675    0.000000000000
 C   -3.456326776723   -5.826128148813    0.000000000000
 H   -2.390490361384   -6.084051191091    0.000000000000
 H   -3.933039928790   -6.213777835517   -0.906268225993
 H   -3.933039928790   -6.213777835517    0.906268225993
