13

 H    2.164345724135    5.828857723371    0.000000000000
 H    3.706895724135    5.958587723371    0.906270000000
 H    3.706895724135    5.958587723371   -0.906270000000
 C    3.230175724135    5.570937723371    0.000000000000
 S    3.321005724135    3.747457723371    0.000000000000
 H    4.649205724135    3.545497723371    0.000000000000
LI    1.789665724135    2.019477723371    0.000000000000
 S   -3.582577690885   -4.042617680842    0.000000000000
 H   -4.910770696844   -3.840657015060    0.000000000000
 C   -3.491747154776   -5.866096872198    0.000000000000
 H   -2.425910739437   -6.124019914476    0.000000000000
 H   -3.968460306843   -6.253746558902   -0.906268225993
 H   -3.968460306843   -6.253746558902    0.906268225993
