13

 H    2.257056568310    5.933473605225    0.000000000000
 H    3.799606568310    6.063203605225    0.906270000000
 H    3.799606568310    6.063203605225   -0.906270000000
 C    3.322886568310    5.675553605225    0.000000000000
 S    3.413716568310    3.852073605225    0.000000000000
 H    4.741916568310    3.650113605225    0.000000000000
LI    1.882376568310    2.124093605225    0.000000000000
 S   -3.688838825044   -4.162523850996    0.000000000000
 H   -5.017031831003   -3.960563185214    0.000000000000
 C   -3.598008288935   -5.986003042352    0.000000000000
 H   -2.532171873596   -6.243926084630    0.000000000000
 H   -4.074721441002   -6.373652729056   -0.906268225993
 H   -4.074721441002   -6.373652729056    0.906268225993
