13

 H    2.318863797760    6.003217526460    0.000000000000
 H    3.861413797760    6.132947526460    0.906270000000
 H    3.861413797760    6.132947526460   -0.906270000000
 C    3.384693797760    5.745297526460    0.000000000000
 S    3.475523797760    3.921817526460    0.000000000000
 H    4.803723797760    3.719857526460    0.000000000000
LI    1.944183797760    2.193837526460    0.000000000000
 S   -3.759679581150   -4.242461297765    0.000000000000
 H   -5.087872587108   -4.040500631983    0.000000000000
 C   -3.668849045041   -6.065940489121    0.000000000000
 H   -2.603012629702   -6.323863531399    0.000000000000
 H   -4.145562197108   -6.453590175825   -0.906268225993
 H   -4.145562197108   -6.453590175825    0.906268225993
