13

 H    2.380671027211    6.072961447696    0.000000000000
 H    3.923221027211    6.202691447696    0.906270000000
 H    3.923221027211    6.202691447696   -0.906270000000
 C    3.446501027211    5.815041447696    0.000000000000
 S    3.537331027211    3.991561447696    0.000000000000
 H    4.865531027211    3.789601447696    0.000000000000
LI    2.005991027211    2.263581447696    0.000000000000
 S   -3.830520337256   -4.322398744534    0.000000000000
 H   -5.158713343214   -4.120438078752    0.000000000000
 C   -3.739689801147   -6.145877935891    0.000000000000
 H   -2.673853385808   -6.403800978168    0.000000000000
 H   -4.216402953214   -6.533527622595   -0.906268225993
 H   -4.216402953214   -6.533527622595    0.906268225993
