13

 H    2.627899945011    6.351937132640    0.000000000000
 H    4.170449945011    6.481667132640    0.906270000000
 H    4.170449945011    6.481667132640   -0.906270000000
 C    3.693729945011    6.094017132640    0.000000000000
 S    3.784559945011    4.270537132640    0.000000000000
 H    5.112759945011    4.068577132640    0.000000000000
LI    2.253219945011    2.542557132640    0.000000000000
 S   -4.113883361679   -4.642148531612    0.000000000000
 H   -5.442076367638   -4.440187865830    0.000000000000
 C   -4.023052825570   -6.465627722968    0.000000000000
 H   -2.957216410231   -6.723550765246    0.000000000000
 H   -4.499765977637   -6.853277409672   -0.906268225993
 H   -4.499765977637   -6.853277409672    0.906268225993
