13

 H    2.689707174462    6.421681053876    0.000000000000
 H    4.232257174462    6.551411053876    0.906270000000
 H    4.232257174462    6.551411053876   -0.906270000000
 C    3.755537174462    6.163761053876    0.000000000000
 S    3.846367174462    4.340281053876    0.000000000000
 H    5.174567174462    4.138321053876    0.000000000000
LI    2.315027174462    2.612301053876    0.000000000000
 S   -4.184724117785   -4.722085978381    0.000000000000
 H   -5.512917123743   -4.520125312599    0.000000000000
 C   -4.093893581676   -6.545565169738    0.000000000000
 H   -3.028057166337   -6.803488212015    0.000000000000
 H   -4.570606733743   -6.933214856441   -0.906268225993
 H   -4.570606733743   -6.933214856441    0.906268225993
