14

 N    0.300021076487    1.904329800967   -0.003324223067
 C   -0.785425866416    2.727088770795   -0.000182351846
 H   -0.593905026534    3.802145743294   -0.002686950388
 C    0.218157355805    0.485059339241   -0.002306554183
 O    1.261900603123   -0.168182550820   -0.004787395495
 N   -1.055680732876   -0.057080292352    0.008306679947
 C   -2.113366845689    0.744271738523    0.005813635119
 N   -3.345359962145    0.140472709443   -0.039592188090
 H   -3.354294430466   -0.859221177068    0.129978420475
 H   -4.163937706348    0.666901028843    0.235307936707
 C   -2.044784847255    2.185648577718    0.002330201453
 H   -2.933308562940    2.816966168962   -0.007151752574
 H    1.243961199414    2.278978013409   -0.006630119295
RB    1.222752612199   -1.267466743228    0.001670090810
