14

 N    0.303105388608    1.990937963473   -0.003832982337
 C   -0.782341554295    2.813696933301   -0.000691111116
 H   -0.590820714413    3.888753905800   -0.003195709658
 C    0.221241667926    0.571667501747   -0.002815313453
 O    1.264984915244   -0.081574388314   -0.005296154765
 N   -1.052596420755    0.029527870154    0.007797920677
 C   -2.110282533568    0.830879901029    0.005304875849
 N   -3.342275650024    0.227080871949   -0.040100947360
 H   -3.351210118345   -0.772613014562    0.129469661205
 H   -4.160853394227    0.753509191349    0.234799177437
 C   -2.041700535134    2.272256740224    0.001821442183
 H   -2.930224250819    2.903574331468   -0.007660511844
 H    1.247045511535    2.365586175915   -0.007138878565
RB    1.218719107789   -1.380728433887    0.002335419959
