14

 N    0.306189700730    2.077546125979   -0.004341741607
 C   -0.779257242173    2.900305095807   -0.001199870386
 H   -0.587736402291    3.975362068306   -0.003704468928
 C    0.224325980048    0.658275664253   -0.003324072723
 O    1.268069227366    0.005033774192   -0.005804914035
 N   -1.049512108633    0.116136032660    0.007289161407
 C   -2.107198221446    0.917488063535    0.004796116579
 N   -3.339191337902    0.313689034455   -0.040609706630
 H   -3.348125806223   -0.686004852056    0.128960901935
 H   -4.157769082105    0.840117353855    0.234290418167
 C   -2.038616223012    2.358864902730    0.001312682913
 H   -2.927139938697    2.990182493974   -0.008169271114
 H    1.250129823657    2.452194338421   -0.007647637835
RB    1.214685603379   -1.493990124546    0.003000749108
