14

 N    0.309274012851    2.164154288484   -0.004850500877
 C   -0.776172930052    2.986913258312   -0.001708629656
 H   -0.584652090170    4.061970230811   -0.004213228198
 C    0.227410292169    0.744883826758   -0.003832831993
 O    1.271153539487    0.091641936697   -0.006313673305
 N   -1.046427796512    0.202744195165    0.006780402137
 C   -2.104113909325    1.004096226040    0.004287357309
 N   -3.336107025781    0.400297196960   -0.041118465900
 H   -3.345041494102   -0.599396689551    0.128452142665
 H   -4.154684769984    0.926725516360    0.233781658897
 C   -2.035531910891    2.445473065235    0.000803923643
 H   -2.924055626576    3.076790656479   -0.008678030384
 H    1.253214135778    2.538802500926   -0.008156397105
RB    1.210652098969   -1.607251815205    0.003666078257
