14

 N    0.320069105277    2.467282857254   -0.006631158322
 C   -0.765377837626    3.290041827082   -0.003489287101
 H   -0.573856997744    4.365098799581   -0.005993885643
 C    0.238205384595    1.048012395528   -0.005613489438
 O    1.281948631913    0.394770505467   -0.008094330750
 N   -1.035632704086    0.505872763935    0.004999744692
 C   -2.093318816899    1.307224794810    0.002506699864
 N   -3.325311933355    0.703425765730   -0.042899123345
 H   -3.334246401676   -0.296268120781    0.126671485220
 H   -4.143889677558    1.229854085130    0.232001001452
 C   -2.024736818465    2.748601634005   -0.000976733802
 H   -2.913260534150    3.379919225249   -0.010458687829
 H    1.264009228204    2.841931069696   -0.009937054550
RB    1.196534833534   -2.003667732513    0.005994730279
