14

 N    0.323153417398    2.553891019760   -0.007139917592
 C   -0.762293525505    3.376649989588   -0.003998046371
 H   -0.570772685623    4.451706962087   -0.006502644913
 C    0.241289696716    1.134620558034   -0.006122248708
 O    1.285032944034    0.481378667973   -0.008603090020
 N   -1.032548391965    0.592480926441    0.004490985422
 C   -2.090234504778    1.393832957316    0.001997940594
 N   -3.322227621234    0.790033928236   -0.043407882615
 H   -3.331162089555   -0.209659958275    0.126162725950
 H   -4.140805365437    1.316462247636    0.231492242182
 C   -2.021652506344    2.835209796511   -0.001485493072
 H   -2.910176222029    3.466527387755   -0.010967447099
 H    1.267093540325    2.928539232202   -0.010445813820
RB    1.192501329124   -2.116929423172    0.006660059428
