14

 N    0.324695573459    2.597195101013   -0.007394297227
 C   -0.760751369444    3.419954070841   -0.004252426006
 H   -0.569230529562    4.495011043340   -0.006757024548
 C    0.242831852777    1.177924639287   -0.006376628343
 O    1.286575100095    0.524682749226   -0.008857469655
 N   -1.031006235904    0.635785007694    0.004236605787
 C   -2.088692348717    1.437137038569    0.001743560959
 N   -3.320685465173    0.833338009489   -0.043662262250
 H   -3.329619933494   -0.166355877022    0.125908346315
 H   -4.139263209376    1.359766328889    0.231237862547
 C   -2.020110350283    2.878513877764   -0.001739872707
 H   -2.908634065968    3.509831469008   -0.011221826734
 H    1.268635696386    2.971843313455   -0.010700193455
RB    1.190484576919   -2.173560268502    0.006992724002
