14

 N    0.332406353763    2.813715507277   -0.008666195402
 C   -0.753040589140    3.636474477105   -0.005524324181
 H   -0.561519749258    4.711531449604   -0.008028922723
 C    0.250542633081    1.394445045551   -0.007648526518
 O    1.294285880399    0.741203155490   -0.010129367830
 N   -1.023295455600    0.852305413958    0.002964707612
 C   -2.080981568413    1.653657444833    0.000471662784
 N   -3.312974684869    1.049858415753   -0.044934160425
 H   -3.321909153190    0.050164529242    0.124636448140
 H   -4.131552429072    1.576286735153    0.229965964372
 C   -2.012399569979    3.095034284028   -0.003011770882
 H   -2.900923285664    3.726351875272   -0.012493724909
 H    1.276346476690    3.188363719719   -0.011972091630
RB    1.180400815894   -2.456714495150    0.008656046875
