14

 N    0.333948509824    2.857019588530   -0.008920575037
 C   -0.751498433079    3.679778558358   -0.005778703816
 H   -0.559977593197    4.754835530857   -0.008283302358
 C    0.252084789142    1.437749126804   -0.007902906153
 O    1.295828036460    0.784507236743   -0.010383747465
 N   -1.021753299539    0.895609495211    0.002710327977
 C   -2.079439412352    1.696961526086    0.000217283149
 N   -3.311432528808    1.093162497006   -0.045188540060
 H   -3.320366997129    0.093468610495    0.124382068505
 H   -4.130010273011    1.619590816406    0.229711584737
 C   -2.010857413918    3.138338365281   -0.003266150517
 H   -2.899381129603    3.769655956525   -0.012748104544
 H    1.277888632751    3.231667800972   -0.012226471265
RB    1.178384063689   -2.513345340480    0.008988711450
