14

 N    0.335490665884    2.900323669783   -0.009174954672
 C   -0.749956277019    3.723082639611   -0.006033083451
 H   -0.558435437137    4.798139612110   -0.008537681993
 C    0.253626945202    1.481053208057   -0.008157285788
 O    1.297370192520    0.827811317996   -0.010638127100
 N   -1.020211143479    0.938913576464    0.002455948342
 C   -2.077897256292    1.740265607339   -0.000037096486
 N   -3.309890372748    1.136466578259   -0.045442919695
 H   -3.318824841069    0.136772691748    0.124127688870
 H   -4.128468116951    1.662894897659    0.229457205102
 C   -2.009315257858    3.181642446534   -0.003520530152
 H   -2.897838973543    3.812960037778   -0.013002484179
 H    1.279430788811    3.274971882225   -0.012480850900
RB    1.176367311484   -2.569976185809    0.009321376024
