14

 N    0.337032821945    2.943627751036   -0.009429334307
 C   -0.748414120958    3.766386720864   -0.006287463086
 H   -0.556893281076    4.841443693363   -0.008792061628
 C    0.255169101263    1.524357289310   -0.008411665423
 O    1.298912348581    0.871115399249   -0.010892506735
 N   -1.018668987418    0.982217657717    0.002201568707
 C   -2.076355100231    1.783569688592   -0.000291476121
 N   -3.308348216687    1.179770659512   -0.045697299330
 H   -3.317282685008    0.180076773001    0.123873309235
 H   -4.126925960890    1.706198978912    0.229202825467
 C   -2.007773101797    3.224946527787   -0.003774909787
 H   -2.896296817482    3.856264119031   -0.013256863814
 H    1.280972944872    3.318275963478   -0.012735230535
RB    1.174350559279   -2.626607031139    0.009654040599
