14

 N    0.347827914371    3.246756319806   -0.011209991752
 C   -0.737619028532    4.069515289634   -0.008068120531
 H   -0.546098188650    5.144572262133   -0.010572719073
 C    0.265964193689    1.827485858080   -0.010192322868
 O    1.309707441007    1.174243968019   -0.012673164180
 N   -1.007873894992    1.285346226487    0.000420911262
 C   -2.065560007805    2.086698257362   -0.002072133566
 N   -3.297553124261    1.482899228282   -0.047477956775
 H   -3.306487592582    0.483205341771    0.122092651790
 H   -4.116130868464    2.009327547682    0.227422168022
 C   -1.996978009371    3.528075096557   -0.005555567232
 H   -2.885501725056    4.159392687801   -0.015037521259
 H    1.291768037298    3.621404532248   -0.014515887980
RB    1.160233293844   -3.023022948447    0.011982692620
