14

 N    0.358623006796    3.549884888576   -0.012990649197
 C   -0.726823936107    4.372643858404   -0.009848777976
 H   -0.535303096225    5.447700830903   -0.012353376518
 C    0.276759286114    2.130614426850   -0.011972980313
 O    1.320502533432    1.477372536789   -0.014453821625
 N   -0.997078802567    1.588474795257   -0.001359746183
 C   -2.054764915380    2.389826826132   -0.003852791011
 N   -3.286758031836    1.786027797052   -0.049258614220
 H   -3.295692500157    0.786333910541    0.120311994345
 H   -4.105335776039    2.312456116452    0.225641510577
 C   -1.986182916946    3.831203665327   -0.007336224677
 H   -2.874706632631    4.462521256571   -0.016818178704
 H    1.302563129723    3.924533101018   -0.016296545425
RB    1.146116028409   -3.419438865754    0.014311344642
