14

 N    0.360165162857    3.593188969829   -0.013245028832
 C   -0.725281780046    4.415947939657   -0.010103157611
 H   -0.533760940164    5.491004912156   -0.012607756153
 C    0.278301442175    2.173918508103   -0.012227359948
 O    1.322044689493    1.520676618042   -0.014708201260
 N   -0.995536646506    1.631778876510   -0.001614125818
 C   -2.053222759319    2.433130907385   -0.004107170646
 N   -3.285215875775    1.829331878305   -0.049512993855
 H   -3.294150344096    0.829637991794    0.120057614710
 H   -4.103793619978    2.355760197705    0.225387130942
 C   -1.984640760885    3.874507746580   -0.007590604312
 H   -2.873164476570    4.505825337824   -0.017072558339
 H    1.304105285784    3.967837182271   -0.016550925060
RB    1.144099276204   -3.476069711084    0.014644009217
