14

 N    0.364791631039    3.723101213587   -0.014008167737
 C   -0.720655311864    4.545860183415   -0.010866296516
 H   -0.529134471982    5.620917155914   -0.013370895058
 C    0.282927910357    2.303830751861   -0.012990498853
 O    1.326671157675    1.650588861800   -0.015471340165
 N   -0.990910178324    1.761691120268   -0.002377264723
 C   -2.048596291137    2.563043151143   -0.004870309551
 N   -3.280589407593    1.959244122063   -0.050276132760
 H   -3.289523875914    0.959550235552    0.119294475805
 H   -4.099167151796    2.485672441463    0.224623992037
 C   -1.980014292703    4.004419990338   -0.008353743217
 H   -2.868538008388    4.635737581582   -0.017835697244
 H    1.308731753966    4.097749426029   -0.017314063965
RB    1.138049019589   -3.645962247073    0.015642002940
