14

 N    0.372502411343    3.939621619852   -0.015280065913
 C   -0.712944531560    4.762380589680   -0.012138194692
 H   -0.521423691678    5.837437562179   -0.014642793234
 C    0.290638690661    2.520351158126   -0.014262397029
 O    1.334381937979    1.867109268065   -0.016743238341
 N   -0.983199398020    1.978211526533   -0.003649162899
 C   -2.040885510833    2.779563557408   -0.006142207727
 N   -3.272878627289    2.175764528328   -0.051548030936
 H   -3.281813095610    1.176070641817    0.118022577629
 H   -4.091456371492    2.702192847728    0.223352093861
 C   -1.972303512399    4.220940396603   -0.009625641393
 H   -2.860827228084    4.852257987847   -0.019107595420
 H    1.316442534270    4.314269832294   -0.018585962141
RB    1.127965258564   -3.929116473721    0.017305325813
