14

 N    0.374044567404    3.982925701104   -0.015534445548
 C   -0.711402375499    4.805684670932   -0.012392574327
 H   -0.519881535617    5.880741643431   -0.014897172869
 C    0.292180846722    2.563655239378   -0.014516776664
 O    1.335924094040    1.910413349317   -0.016997617976
 N   -0.981657241959    2.021515607785   -0.003903542534
 C   -2.039343354772    2.822867638660   -0.006396587362
 N   -3.271336471228    2.219068609580   -0.051802410571
 H   -3.280270939549    1.219374723069    0.117768197994
 H   -4.089914215431    2.745496928980    0.223097714226
 C   -1.970761356338    4.264244477855   -0.009880021028
 H   -2.859285072023    4.895562069099   -0.019361975055
 H    1.317984690331    4.357573913546   -0.018840341776
RB    1.125948506359   -3.985747319051    0.017637990387
