14

 N    0.384839659829    4.286054269875   -0.017315102993
 C   -0.700607283074    5.108813239703   -0.014173231772
 H   -0.509086443192    6.183870212202   -0.016677830314
 C    0.302975939147    2.866783808149   -0.016297434109
 O    1.346719186465    2.213541918088   -0.018778275421
 N   -0.970862149534    2.324644176556   -0.005684199979
 C   -2.028548262347    3.125996207431   -0.008177244807
 N   -3.260541378803    2.522197178351   -0.053583068016
 H   -3.269475847124    1.522503291840    0.115987540549
 H   -4.079119123006    3.048625497751    0.221317056781
 C   -1.959966263913    4.567373046626   -0.011660678473
 H   -2.848489979598    5.198690637870   -0.021142632500
 H    1.328779782756    4.660702482317   -0.020620999221
RB    1.111831240925   -4.382163236358    0.019966642409
