14

 N    0.389466128011    4.415966513633   -0.018078241898
 C   -0.695980814892    5.238725483461   -0.014936370677
 H   -0.504459975010    6.313782455960   -0.017440969219
 C    0.307602407329    2.996696051907   -0.017060573014
 O    1.351345654647    2.343454161846   -0.019541414326
 N   -0.966235681352    2.454556420314   -0.006447338884
 C   -2.023921794165    3.255908451189   -0.008940383712
 N   -3.255914910621    2.652109422109   -0.054346206921
 H   -3.264849378942    1.652415535598    0.115224401644
 H   -4.074492654824    3.178537741509    0.220553917876
 C   -1.955339795731    4.697285290384   -0.012423817378
 H   -2.843863511416    5.328602881628   -0.021905771405
 H    1.333406250938    4.790614726075   -0.021384138126
RB    1.105780984310   -4.552055772347    0.020964636133
