14

 N    0.395634752255    4.589182838645   -0.019095760438
 C   -0.689812190648    5.411941808473   -0.015953889217
 H   -0.498291350766    6.486998780972   -0.018458487759
 C    0.313771031573    3.169912376919   -0.018078091554
 O    1.357514278891    2.516670486858   -0.020558932866
 N   -0.960067057108    2.627772745326   -0.007464857424
 C   -2.017753169921    3.429124776201   -0.009957902252
 N   -3.249746286377    2.825325747121   -0.055363725461
 H   -3.258680754698    1.825631860610    0.114206883104
 H   -4.068324030580    3.351754066521    0.219536399336
 C   -1.949171171487    4.870501615396   -0.013441335918
 H   -2.837694887172    5.501819206640   -0.022923289945
 H    1.339574875182    4.963831051087   -0.022401656666
RB    1.097713975490   -4.778579153666    0.022295294431
