14

 N    0.403345532558    4.805703244909   -0.020367658613
 C   -0.682101410345    5.628462214737   -0.017225787392
 H   -0.490580570463    6.703519187236   -0.019730385934
 C    0.321481811876    3.386432783183   -0.019349989729
 O    1.365225059194    2.733190893122   -0.021830831041
 N   -0.952356276805    2.844293151590   -0.008736755599
 C   -2.010042389618    3.645645182465   -0.011229800427
 N   -3.242035506074    3.041846153385   -0.056635623636
 H   -3.250969974395    2.042152266874    0.112934984929
 H   -4.060613250277    3.568274472785    0.218264501161
 C   -1.941460391184    5.087022021660   -0.014713234093
 H   -2.829984106869    5.718339612904   -0.024195188120
 H    1.347285655485    5.180351457351   -0.023673554841
RB    1.087630214465   -5.061733380314    0.023958617304
