14

 N    0.404887688619    4.849007326162   -0.020622038248
 C   -0.680559254284    5.671766295990   -0.017480167027
 H   -0.489038414402    6.746823268489   -0.019984765569
 C    0.323023967937    3.429736864436   -0.019604369364
 O    1.366767215255    2.776494974375   -0.022085210676
 N   -0.950814120744    2.887597232843   -0.008991135234
 C   -2.008500233557    3.688949263718   -0.011484180062
 N   -3.240493350013    3.085150234638   -0.056890003271
 H   -3.249427818334    2.085456348127    0.112680605294
 H   -4.059071094216    3.611578554038    0.218010121526
 C   -1.939918235123    5.130326102913   -0.014967613728
 H   -2.828441950808    5.761643694157   -0.024449567755
 H    1.348827811546    5.223655538604   -0.023927934476
RB    1.085613462260   -5.118364225644    0.024291281878
