14

 N    0.406429844680    4.892311407415   -0.020876417883
 C   -0.679017098223    5.715070377243   -0.017734546662
 H   -0.487496258341    6.790127349742   -0.020239145204
 C    0.324566123998    3.473040945689   -0.019858748999
 O    1.368309371316    2.819799055628   -0.022339590311
 N   -0.949271964683    2.930901314096   -0.009245514869
 C   -2.006958077496    3.732253344971   -0.011738559697
 N   -3.238951193952    3.128454315891   -0.057144382906
 H   -3.247885662273    2.128760429380    0.112426225659
 H   -4.057528938155    3.654882635291    0.217755741891
 C   -1.938376079062    5.173630184166   -0.015221993363
 H   -2.826899794747    5.804947775410   -0.024703947390
 H    1.350369967607    5.266959619857   -0.024182314111
RB    1.083596710055   -5.174995070973    0.024623946453
