14

 N    0.407972000741    4.935615488667   -0.021130797518
 C   -0.677474942162    5.758374458495   -0.017988926297
 H   -0.485954102280    6.833431430994   -0.020493524839
 C    0.326108280059    3.516345026941   -0.020113128634
 O    1.369851527377    2.863103136880   -0.022593969946
 N   -0.947729808622    2.974205395348   -0.009499894504
 C   -2.005415921435    3.775557426223   -0.011992939332
 N   -3.237409037891    3.171758397143   -0.057398762541
 H   -3.246343506212    2.172064510632    0.112171846024
 H   -4.055986782094    3.698186716543    0.217501362256
 C   -1.936833923001    5.216934265418   -0.015476372998
 H   -2.825357638686    5.848251856662   -0.024958327025
 H    1.351912123668    5.310263701109   -0.024436693746
RB    1.081579957850   -5.231625916303    0.024956611027
