14

 N    0.409514156802    4.978919569920   -0.021385177153
 C   -0.675932786101    5.801678539748   -0.018243305932
 H   -0.484411946219    6.876735512247   -0.020747904474
 C    0.327650436120    3.559649108194   -0.020367508269
 O    1.371393683438    2.906407218133   -0.022848349581
 N   -0.946187652561    3.017509476601   -0.009754274139
 C   -2.003873765374    3.818861507476   -0.012247318967
 N   -3.235866881830    3.215062478396   -0.057653142176
 H   -3.244801350151    2.215368591885    0.111917466389
 H   -4.054444626033    3.741490797796    0.217246982621
 C   -1.935291766940    5.260238346671   -0.015730752633
 H   -2.823815482625    5.891555937915   -0.025212706660
 H    1.353454279729    5.353567782362   -0.024691073381
RB    1.079563205645   -5.288256761633    0.025289275602
