14

 N    0.415682781045    5.152135894932   -0.022402695693
 C   -0.669764161858    5.974894864760   -0.019260824472
 H   -0.478243321976    7.049951837259   -0.021765423014
 C    0.333819060363    3.732865433206   -0.021385026809
 O    1.377562307681    3.079623543145   -0.023865868121
 N   -0.940019028318    3.190725801613   -0.010771792679
 C   -1.997705141131    3.992077832488   -0.013264837507
 N   -3.229698257587    3.388278803408   -0.058670660716
 H   -3.238632725908    2.388584916897    0.110899947849
 H   -4.048276001790    3.914707122808    0.216229464081
 C   -1.929123142697    5.433454671683   -0.016748271173
 H   -2.817646858382    6.064772262927   -0.026230225200
 H    1.359622903972    5.526784107374   -0.025708591921
RB    1.071496196825   -5.514780142951    0.026619933900
