14

 N    0.417224937105    5.195439976185   -0.022657075328
 C   -0.668222005798    6.018198946013   -0.019515204107
 H   -0.476701165916    7.093255918512   -0.022019802649
 C    0.335361216423    3.776169514459   -0.021639406444
 O    1.379104463741    3.122927624398   -0.024120247756
 N   -0.938476872258    3.234029882866   -0.011026172314
 C   -1.996162985071    4.035381913741   -0.013519217142
 N   -3.228156101527    3.431582884661   -0.058925040351
 H   -3.237090569848    2.431888998150    0.110645568214
 H   -4.046733845730    3.958011204061    0.215975084446
 C   -1.927580986637    5.476758752936   -0.017002650808
 H   -2.816104702322    6.108076344180   -0.026484604835
 H    1.361165060032    5.570088188627   -0.025962971556
RB    1.069479444620   -5.571410988281    0.026952598474
