14

 N    0.418767093166    5.238744057437   -0.022911454963
 C   -0.666679849737    6.061503027265   -0.019769583742
 H   -0.475159009855    7.136559999764   -0.022274182284
 C    0.336903372484    3.819473595711   -0.021893786079
 O    1.380646619802    3.166231705650   -0.024374627391
 N   -0.936934716197    3.277333964118   -0.011280551949
 C   -1.994620829010    4.078685994993   -0.013773596777
 N   -3.226613945466    3.474886965913   -0.059179419986
 H   -3.235548413787    2.475193079402    0.110391188579
 H   -4.045191689669    4.001315285313    0.215720704811
 C   -1.926038830576    5.520062834188   -0.017257030443
 H   -2.814562546261    6.151380425432   -0.026738984470
 H    1.362707216093    5.613392269879   -0.026217351191
RB    1.067462692415   -5.628041833610    0.027285263049
