14

 N    0.420309249227    5.282048138690   -0.023165834598
 C   -0.665137693676    6.104807108518   -0.020023963377
 H   -0.473616853794    7.179864081017   -0.022528561919
 C    0.338445528545    3.862777676964   -0.022148165714
 O    1.382188775863    3.209535786903   -0.024629007026
 N   -0.935392560136    3.320638045371   -0.011534931584
 C   -1.993078672949    4.121990076246   -0.014027976412
 N   -3.225071789405    3.518191047166   -0.059433799621
 H   -3.234006257726    2.518497160655    0.110136808944
 H   -4.043649533608    4.044619366566    0.215466325176
 C   -1.924496674515    5.563366915441   -0.017511410078
 H   -2.813020390200    6.194684506685   -0.026993364105
 H    1.364249372154    5.656696351132   -0.026471730826
RB    1.065445940210   -5.684672678940    0.027617927623
