14

 N    0.423393561349    5.368656301196   -0.023674593868
 C   -0.662053381554    6.191415271024   -0.020532722647
 H   -0.470532541672    7.266472243523   -0.023037321189
 C    0.341529840667    3.949385839470   -0.022656924984
 O    1.385273087985    3.296143949409   -0.025137766296
 N   -0.932308248014    3.407246207877   -0.012043690854
 C   -1.989994360827    4.208598238752   -0.014536735682
 N   -3.221987477283    3.604799209672   -0.059942558891
 H   -3.230921945604    2.605105323161    0.109628049674
 H   -4.040565221486    4.131227529072    0.214957565906
 C   -1.921412362393    5.649975077947   -0.018020169348
 H   -2.809936078078    6.281292669191   -0.027502123375
 H    1.367333684276    5.743304513638   -0.026980490096
RB    1.061412435800   -5.797934369599    0.028283256772
