14

 N    0.426477873470    5.455264463702   -0.024183353138
 C   -0.658969069433    6.278023433530   -0.021041481917
 H   -0.467448229551    7.353080406029   -0.023546080459
 C    0.344614152788    4.035994001976   -0.023165684254
 O    1.388357400106    3.382752111915   -0.025646525566
 N   -0.929223935893    3.493854370383   -0.012552450124
 C   -1.986910048706    4.295206401258   -0.015045494952
 N   -3.218903165162    3.691407372178   -0.060451318161
 H   -3.227837633483    2.691713485667    0.109119290404
 H   -4.037480909365    4.217835691578    0.214448806636
 C   -1.918328050272    5.736583240453   -0.018528928618
 H   -2.806851765957    6.367900831697   -0.028010882645
 H    1.370417996397    5.829912676144   -0.027489249366
RB    1.057378931390   -5.911196060259    0.028948585921
