14

 N    0.434188653774    5.671784869966   -0.025455251313
 C   -0.651258289129    6.494543839794   -0.022313380092
 H   -0.459737449247    7.569600812293   -0.024817978634
 C    0.352324933092    4.252514408240   -0.024437582429
 O    1.396068180410    3.599272518179   -0.026918423741
 N   -0.921513155589    3.710374776647   -0.013824348299
 C   -1.979199268402    4.511726807522   -0.016317393127
 N   -3.211192384858    3.907927778442   -0.061723216336
 H   -3.220126853179    2.908233891931    0.107847392229
 H   -4.029770129061    4.434356097842    0.213176908461
 C   -1.910617269968    5.953103646717   -0.019800826793
 H   -2.799140985653    6.584421237961   -0.029282780820
 H    1.378128776701    6.046433082408   -0.028761147541
RB    1.047295170365   -6.194350286907    0.030611908794
