14

 N    0.435730809835    5.715088951219   -0.025709630948
 C   -0.649716133068    6.537847921047   -0.022567759727
 H   -0.458195293186    7.612904893546   -0.025072358269
 C    0.353867089153    4.295818489493   -0.024691962064
 O    1.397610336471    3.642576599432   -0.027172803376
 N   -0.919970999528    3.753678857900   -0.014078727934
 C   -1.977657112341    4.555030888775   -0.016571772762
 N   -3.209650228797    3.951231859695   -0.061977595971
 H   -3.218584697118    2.951537973184    0.107593012594
 H   -4.028227973000    4.477660179095    0.212922528826
 C   -1.909075113907    5.996407727970   -0.020055206428
 H   -2.797598829592    6.627725319214   -0.029537160455
 H    1.379670932762    6.089737163661   -0.029015527176
RB    1.045278418160   -6.250981132237    0.030944573369
