18

 N   -1.157187868552    0.608024643739    1.277424898684
 C   -0.515927868552    0.807404643739    2.600454898684
 H   -2.150077868552    0.842924643739    1.288344898684
 H   -1.036087868552   -0.402245356261    0.976114898684
 H   -0.660577868552    1.202894643739    0.552294898684
 H    0.539212131448    0.533404643739    2.497004898684
 H   -0.995627868552    0.158534643739    3.341704898684
 H   -0.597437868552    1.860224643739    2.892374898684
CL    0.588362131448    2.107344643739   -0.662185101316
CL   -0.418157868552   -2.196775356261    0.474294898684
 N    0.971482476290   -0.510448724711   -1.072424694250
 C    0.330223307841   -0.709828105888   -2.395451614325
 H    1.964374399879   -0.745354816401   -1.083346496244
 H    0.850384731284    0.499812486923   -0.771111917684
 H    0.474868940247   -1.105322336408   -0.347293243874
 H   -0.724913356266   -0.435828097838   -2.292004446428
 H    0.809924750584   -0.060968756417   -3.136699531377
 H    0.411729898777   -1.762649186629   -2.687376234702
