18

 N   -1.232882191084    0.647796928865    1.360984231119
 C   -0.591622191084    0.847176928865    2.684014231119
 H   -2.225772191084    0.882696928865    1.371904231119
 H   -1.111782191084   -0.362473071135    1.059674231119
 H   -0.736272191084    1.242666928865    0.635854231119
 H    0.463517808916    0.573176928865    2.580564231119
 H   -1.071322191084    0.198306928865    3.425264231119
 H   -0.673132191084    1.899996928865    2.975934231119
CL    0.512667808916    2.147116928865   -0.578625768881
CL   -0.493852191084   -2.157003071135    0.557854231119
 N    1.212352562630   -0.637009785460   -1.338322359292
 C    0.571093394182   -0.836389166637   -2.661349279367
 H    2.205244486219   -0.871915877150   -1.349244161286
 H    1.091254817625    0.373251426174   -1.037009582726
 H    0.715739026587   -1.231883397157   -0.613190908915
 H   -0.484043269925   -0.562389158587   -2.557902111469
 H    1.050794836924   -0.187529817166   -3.402597196419
 H    0.652599985117   -1.889210247378   -2.953273899744
