18

 N   -1.263159920097    0.663705842916    1.394407964093
 C   -0.621899920097    0.863085842916    2.717437964093
 H   -2.256049920097    0.898605842916    1.405327964093
 H   -1.142059920097   -0.346564157084    1.093097964093
 H   -0.766549920097    1.258575842916    0.669277964093
 H    0.433240079903    0.589085842916    2.613987964093
 H   -1.101599920097    0.214215842916    3.458687964093
 H   -0.703409920097    1.915905842916    3.009357964093
CL    0.482390079903    2.163025842916   -0.545202035907
CL   -0.524129920097   -2.141094157084    0.591277964093
 N    1.308700597167   -0.687634209760   -1.444681425309
 C    0.667441428718   -0.887013590937   -2.767708345383
 H    2.301592520756   -0.922540301450   -1.455603227303
 H    1.187602852161    0.322627001874   -1.143368648743
 H    0.812087061123   -1.282507821457   -0.719549974932
 H   -0.387695235389   -0.613013582886   -2.664261177486
 H    1.147142871460   -0.238154241466   -3.508956262436
 H    0.748948019653   -1.939834671678   -3.059632965760
