18

 N   -1.278298784603    0.671660299941    1.411119830580
 C   -0.637038784603    0.871040299941    2.734149830580
 H   -2.271188784603    0.906560299941    1.422039830580
 H   -1.157198784603   -0.338609700059    1.109809830580
 H   -0.781688784603    1.266530299941    0.685989830580
 H    0.418101215397    0.597040299941    2.630699830580
 H   -1.116738784603    0.222170299941    3.475399830580
 H   -0.718548784603    1.923860299941    3.026069830580
CL    0.467251215397    2.170980299941   -0.528490169420
CL   -0.539268784603   -2.133139700059    0.607989830580
 N    1.356874614435   -0.712946421910   -1.497860958317
 C    0.715615445986   -0.912325803087   -2.820887878392
 H    2.349766538024   -0.947852513599   -1.508782760311
 H    1.235776869429    0.297314789724   -1.196548181751
 H    0.860261078392   -1.307820033607   -0.772729507940
 H   -0.339521218121   -0.638325795036   -2.717440710494
 H    1.195316888729   -0.263466453615   -3.562135795444
 H    0.797122036921   -1.965146883827   -3.112812498769
