18

 N   -1.293437649110    0.679614756966    1.427831697067
 C   -0.652177649110    0.878994756966    2.750861697067
 H   -2.286327649110    0.914514756966    1.438751697067
 H   -1.172337649110   -0.330655243034    1.126521697067
 H   -0.796827649110    1.274484756966    0.702701697067
 H    0.402962350890    0.604994756966    2.647411697067
 H   -1.131877649110    0.230124756966    3.492111697067
 H   -0.733687649110    1.931814756966    3.042781697067
CL    0.452112350890    2.178934756966   -0.511778302933
CL   -0.554407649110   -2.125185243034    0.624701697067
 N    1.405048631703   -0.738258634060   -1.551040491325
 C    0.763789463254   -0.937638015237   -2.874067411400
 H    2.397940555292   -0.973164725749   -1.561962293319
 H    1.283950886697    0.272002577575   -1.249727714759
 H    0.908435095660   -1.333132245757   -0.825909040949
 H   -0.291347200853   -0.663638007186   -2.770620243503
 H    1.243490905997   -0.288778665765   -3.615315328452
 H    0.845296054189   -1.990459095977   -3.165992031777
