18

 N   -1.308576513616    0.687569213991    1.444543563554
 C   -0.667316513616    0.886949213991    2.767573563554
 H   -2.301466513616    0.922469213991    1.455463563554
 H   -1.187476513616   -0.322700786009    1.143233563554
 H   -0.811966513616    1.282439213991    0.719413563554
 H    0.387823486384    0.612949213991    2.664123563554
 H   -1.147016513616    0.238079213991    3.508823563554
 H   -0.748826513616    1.939769213991    3.059493563554
CL    0.436973486384    2.186889213991   -0.495066436446
CL   -0.569546513616   -2.117230786009    0.641413563554
 N    1.453222648971   -0.763570846209   -1.604220024334
 C    0.811963480522   -0.962950227386   -2.927246944408
 H    2.446114572560   -0.998476937899   -1.615141826328
 H    1.332124903965    0.246690365425   -1.302907247768
 H    0.956609112928   -1.358444457906   -0.879088573957
 H   -0.243173183585   -0.688950219336   -2.823799776511
 H    1.291664923265   -0.314090877915   -3.668494861461
 H    0.893470071457   -2.015771308127   -3.219171564785
