18

 N   -1.459965158680    0.767113784244    1.611662228423
 C   -0.818705158680    0.966493784244    2.934692228423
 H   -2.452855158680    1.002013784244    1.622582228423
 H   -1.338865158680   -0.243156215756    1.310352228423
 H   -0.963355158680    1.361983784244    0.886532228423
 H    0.236434841320    0.692493784244    2.831242228423
 H   -1.298405158680    0.317623784244    3.675942228423
 H   -0.900215158680    2.019313784244    3.226612228423
CL    0.285584841320    2.266433784244   -0.327947771577
CL   -0.720935158680   -2.037686215756    0.808532228423
 N    1.934962821652   -1.016692967707   -2.136015354417
 C    1.293703653203   -1.216072348884   -3.459042274492
 H    2.927854745241   -1.251599059397   -2.146937156411
 H    1.813865076646   -0.006431756073   -1.834702577851
 H    1.438349285609   -1.611566579404   -1.410883904040
 H    0.238566989096   -0.942072340834   -3.355595106594
 H    1.773405095946   -0.567212999413   -4.200290191544
 H    1.375210244138   -2.268893429625   -3.750966894869
