18

 N   -1.505381752199    0.790977155320    1.661797827884
 C   -0.864121752199    0.990357155320    2.984827827884
 H   -2.498271752199    1.025877155320    1.672717827884
 H   -1.384281752199   -0.219292844680    1.360487827884
 H   -1.008771752199    1.385847155320    0.936667827884
 H    0.191018247801    0.716357155320    2.881377827884
 H   -1.343821752199    0.341487155320    3.726077827884
 H   -0.945631752199    2.043177155320    3.276747827884
CL    0.240168247801    2.290297155320   -0.277812172116
CL   -0.766351752199   -2.013822844680    0.858667827884
 N    2.079484873456   -1.092629604157   -2.295553953442
 C    1.438225705007   -1.292008985334   -3.618580873517
 H    3.072376797045   -1.327535695846   -2.306475755436
 H    1.958387128450   -0.082368392523   -1.994241176876
 H    1.582871337413   -1.687503215854   -1.570422503066
 H    0.383089040900   -1.018008977283   -3.515133705620
 H    1.917927147750   -0.643149635862   -4.359828790569
 H    1.519732295943   -2.344830066074   -3.910505493894
