18

 N   -1.535659481212    0.806886069370    1.695221560858
 C   -0.894399481212    1.006266069370    3.018251560858
 H   -2.528549481212    1.041786069370    1.706141560858
 H   -1.414559481212   -0.203383930630    1.393911560858
 H   -1.039049481212    1.401756069370    0.970091560858
 H    0.160740518788    0.732266069370    2.914801560858
 H   -1.374099481212    0.357396069370    3.759501560858
 H   -0.975909481212    2.059086069370    3.310171560858
CL    0.209890518788    2.306206069370   -0.244388439142
CL   -0.796629481212   -1.997913930630    0.892091560858
 N    2.175832907992   -1.143254028456   -2.401913019459
 C    1.534573739543   -1.342633409633   -3.724939939533
 H    3.168724831581   -1.378160120146   -2.412834821453
 H    2.054735162986   -0.132992816822   -2.100600242893
 H    1.679219371949   -1.738127640153   -1.676781569082
 H    0.479437075437   -1.068633401583   -3.621492771636
 H    2.014275182286   -0.693774060162   -4.466187856586
 H    1.616080330479   -2.395454490374   -4.016864559910
