18

 N   -1.550798345718    0.814840526395    1.711933427345
 C   -0.909538345718    1.014220526395    3.034963427345
 H   -2.543688345718    1.049740526395    1.722853427345
 H   -1.429698345718   -0.195429473605    1.410623427345
 H   -1.054188345718    1.409710526395    0.986803427345
 H    0.145601654282    0.740220526395    2.931513427345
 H   -1.389238345718    0.365350526395    3.776213427345
 H   -0.991048345718    2.067040526395    3.326883427345
CL    0.194751654282    2.314160526395   -0.227676572655
CL   -0.811768345718   -1.989959473605    0.908803427345
 N    2.224006925260   -1.168566240606   -2.455092552467
 C    1.582747756812   -1.367945621783   -3.778119472542
 H    3.216898848849   -1.403472332296   -2.466014354461
 H    2.102909180255   -0.158305028972   -2.153779775901
 H    1.727393389217   -1.763439852303   -1.729961102091
 H    0.527611092705   -1.093945613733   -3.674672304645
 H    2.062449199554   -0.719086272312   -4.519367389594
 H    1.664254347747   -2.420766702524   -4.070044092919
