18

 N   -1.565937210224    0.822794983420    1.728645293832
 C   -0.924677210224    1.022174983420    3.051675293832
 H   -2.558827210224    1.057694983420    1.739565293832
 H   -1.444837210224   -0.187475016580    1.427335293832
 H   -1.069327210224    1.417664983420    1.003515293832
 H    0.130462789776    0.748174983420    2.948225293832
 H   -1.404377210224    0.373304983420    3.792925293832
 H   -1.006187210224    2.074994983420    3.343595293832
CL    0.179612789776    2.322114983420   -0.210964706168
CL   -0.826907210224   -1.982005016580    0.925515293832
 N    2.272180942528   -1.193878452756   -2.508272085476
 C    1.630921774080   -1.393257833933   -3.831299005550
 H    3.265072866117   -1.428784544445   -2.519193887470
 H    2.151083197523   -0.183617241122   -2.206959308909
 H    1.775567406485   -1.788752064453   -1.783140635099
 H    0.575785109973   -1.119257825882   -3.727851837653
 H    2.110623216822   -0.744398484462   -4.572546922602
 H    1.712428365015   -2.446078914674   -4.123223625927
