18

 N   -1.581076074731    0.830749440446    1.745357160319
 C   -0.939816074731    1.030129440446    3.068387160319
 H   -2.573966074731    1.065649440446    1.756277160319
 H   -1.459976074731   -0.179520559554    1.444047160319
 H   -1.084466074731    1.425619440446    1.020227160319
 H    0.115323925269    0.756129440446    2.964937160319
 H   -1.419516074731    0.381259440446    3.809637160319
 H   -1.021326074731    2.082949440446    3.360307160319
CL    0.164473925269    2.330069440446   -0.194252839681
CL   -0.842046074731   -1.974050559554    0.942227160319
 N    2.320354959796   -1.219190664906   -2.561451618484
 C    1.679095791348   -1.418570046083   -3.884478538558
 H    3.313246883385   -1.454096756595   -2.572373420478
 H    2.199257214791   -0.208929453272   -2.260138841918
 H    1.823741423753   -1.814064276603   -1.836320168107
 H    0.623959127241   -1.144570038032   -3.781031370661
 H    2.158797234090   -0.769710696611   -4.625726455611
 H    1.760602382283   -2.471391126823   -4.176403158935
