18

 N   -1.626492668250    0.854612811521    1.795492759780
 C   -0.985232668250    1.053992811521    3.118522759780
 H   -2.619382668250    1.089512811521    1.806412759780
 H   -1.505392668250   -0.155657188479    1.494182759780
 H   -1.129882668250    1.449482811521    1.070362759780
 H    0.069907331750    0.779992811521    3.015072759780
 H   -1.464932668250    0.405122811521    3.859772759780
 H   -1.066742668250    2.106812811521    3.410442759780
CL    0.119057331750    2.353932811521   -0.144117240220
CL   -0.887462668250   -1.950187188479    0.992362759780
 N    2.464877011601   -1.295127301355   -2.720990217509
 C    1.823617843152   -1.494506682532   -4.044017137583
 H    3.457768935190   -1.530033393045   -2.731912019503
 H    2.343779266595   -0.284866089721   -2.419677440943
 H    1.968263475558   -1.890000913052   -1.995858767132
 H    0.768481179045   -1.220506674482   -3.940569969686
 H    2.303319285895   -0.845647333061   -4.785265054636
 H    1.905124434087   -2.547327763273   -4.335941757960
