18

 N   -1.656770397262    0.870521725572    1.828916492754
 C   -1.015510397262    1.069901725572    3.151946492754
 H   -2.649660397262    1.105421725572    1.839836492754
 H   -1.535670397262   -0.139748274428    1.527606492754
 H   -1.160160397262    1.465391725572    1.103786492754
 H    0.039629602738    0.795901725572    3.048496492754
 H   -1.495210397262    0.421031725572    3.893196492754
 H   -1.097020397262    2.122721725572    3.443866492754
CL    0.088779602738    2.369841725572   -0.110693507246
CL   -0.917740397262   -1.934278274428    1.025786492754
 N    2.561225046137   -1.345751725655   -2.827349283526
 C    1.919965877688   -1.545131106832   -4.150376203600
 H    3.554116969726   -1.580657817344   -2.838271085520
 H    2.440127301131   -0.335490514021   -2.526036506960
 H    2.064611510094   -1.940625337352   -2.102217833149
 H    0.864829213581   -1.271131098781   -4.046929035703
 H    2.399667320431   -0.896271757360   -4.891624120653
 H    2.001472468623   -2.597952187572   -4.442300823977
