18

 N   -1.717325855288    0.902339553673    1.895763958702
 C   -1.076065855288    1.101719553673    3.218793958702
 H   -2.710215855288    1.137239553673    1.906683958702
 H   -1.596225855288   -0.107930446327    1.594453958702
 H   -1.220715855288    1.497209553673    1.170633958702
 H   -0.020925855288    0.827719553673    3.115343958702
 H   -1.555765855288    0.452849553673    3.960043958702
 H   -1.157575855288    2.154539553673    3.510713958702
CL    0.028224144712    2.401659553673   -0.043846041298
CL   -0.978295855288   -1.902460446327    1.092633958702
 N    2.753921115209   -1.447000574254   -3.040067415559
 C    2.112661946760   -1.646379955431   -4.363094335634
 H    3.746813038798   -1.681906665943   -3.050989217553
 H    2.632823370204   -0.436739362620   -2.738754638993
 H    2.257307579166   -2.041874185951   -2.314935965182
 H    1.057525282654   -1.372379947380   -4.259647167736
 H    2.592363389503   -0.997520605960   -5.104342252686
 H    2.194168537696   -2.699201036171   -4.655018956011
