18

 N   -1.732464719794    0.910294010698    1.912475825189
 C   -1.091204719794    1.109674010698    3.235505825189
 H   -2.725354719794    1.145194010698    1.923395825189
 H   -1.611364719794   -0.099975989302    1.611165825189
 H   -1.235854719794    1.505164010698    1.187345825189
 H   -0.036064719794    0.835674010698    3.132055825189
 H   -1.570904719794    0.460804010698    3.976755825189
 H   -1.172714719794    2.162494010698    3.527425825189
CL    0.013085280206    2.409614010698   -0.027134174811
CL   -0.993434719794   -1.894505989302    1.109345825189
 N    2.802095132477   -1.472312786404   -3.093246948567
 C    2.160835964029   -1.671692167581   -4.416273868642
 H    3.794987056066   -1.707218878093   -3.104168750561
 H    2.680997387472   -0.462051574770   -2.791934172001
 H    2.305481596434   -2.067186398101   -2.368115498191
 H    1.105699299922   -1.397692159530   -4.312826700745
 H    2.640537406771   -1.022832818109   -5.157521785694
 H    2.242342554964   -2.724513248321   -4.708198489019
