18

 N   -1.747603584301    0.918248467723    1.929187691676
 C   -1.106343584301    1.117628467723    3.252217691676
 H   -2.740493584301    1.153148467723    1.940107691676
 H   -1.626503584301   -0.092021532277    1.627877691676
 H   -1.250993584301    1.513118467723    1.204057691676
 H   -0.051203584301    0.843628467723    3.148767691676
 H   -1.586043584301    0.468758467723    3.993467691676
 H   -1.187853584301    2.170448467723    3.544137691676
CL   -0.002053584301    2.417568467723   -0.010422308324
CL   -1.008573584301   -1.886551532277    1.126057691676
 N    2.850269149745   -1.497624998554   -3.146426481576
 C    2.209009981297   -1.697004379730   -4.469453401650
 H    3.843161073334   -1.732531090243   -3.157348283570
 H    2.729171404740   -0.487363786919   -2.845113705010
 H    2.353655613702   -2.092498610251   -2.421295031199
 H    1.153873317190   -1.423004371680   -4.366006233753
 H    2.688711424039   -1.048145030259   -5.210701318703
 H    2.290516572232   -2.749825460471   -4.761378022027
