18

 N   -1.762742448807    0.926202924749    1.945899558163
 C   -1.121482448807    1.125582924749    3.268929558163
 H   -2.755632448807    1.161102924749    1.956819558163
 H   -1.641642448807   -0.084067075251    1.644589558163
 H   -1.266132448807    1.521072924749    1.220769558163
 H   -0.066342448807    0.851582924749    3.165479558163
 H   -1.601182448807    0.476712924749    4.010179558163
 H   -1.202992448807    2.178402924749    3.560849558163
CL   -0.017192448807    2.425522924749    0.006289558163
CL   -1.023712448807   -1.878597075251    1.142769558163
 N    2.898443167013   -1.522937210703   -3.199606014584
 C    2.257183998565   -1.722316591880   -4.522632934659
 H    3.891335090602   -1.757843302393   -3.210527816578
 H    2.777345422008   -0.512675999069   -2.898293238018
 H    2.401829630970   -2.117810822400   -2.474474564207
 H    1.202047334458   -1.448316583830   -4.419185766761
 H    2.736885441307   -1.073457242409   -5.263880851711
 H    2.338690589500   -2.775137672621   -4.814557555036
