18

 N   -1.777881313313    0.934157381774    1.962611424650
 C   -1.136621313313    1.133537381774    3.285641424650
 H   -2.770771313313    1.169057381774    1.973531424650
 H   -1.656781313313   -0.076112618226    1.661301424650
 H   -1.281271313313    1.529027381774    1.237481424650
 H   -0.081481313313    0.859537381774    3.182191424650
 H   -1.616321313313    0.484667381774    4.026891424650
 H   -1.218131313313    2.186357381774    3.577561424650
CL   -0.032331313313    2.433477381774    0.023001424650
CL   -1.038851313313   -1.870642618226    1.159481424650
 N    2.946617184281   -1.548249422853   -3.252785547592
 C    2.305358015833   -1.747628804030   -4.575812467667
 H    3.939509107871   -1.783155514543   -3.263707349586
 H    2.825519439276   -0.537988211219   -2.951472771026
 H    2.450003648238   -2.143123034550   -2.527654097216
 H    1.250221351726   -1.473628795979   -4.472365299770
 H    2.785059458575   -1.098769454559   -5.317060384719
 H    2.386864606768   -2.800449884771   -4.867737088044
