18

 N   -1.853575635845    0.973929666900    2.046170757085
 C   -1.212315635845    1.173309666900    3.369200757085
 H   -2.846465635845    1.208829666900    2.057090757085
 H   -1.732475635845   -0.036340333100    1.744860757085
 H   -1.356965635845    1.568799666900    1.321040757085
 H   -0.157175635845    0.899309666900    3.265750757085
 H   -1.692015635845    0.524439666900    4.110450757085
 H   -1.293825635845    2.226129666900    3.661120757085
CL   -0.108025635845    2.473249666900    0.106560757085
CL   -1.114545635845   -1.830870333100    1.243040757085
 N    3.187487270622   -1.674810483602   -3.518683212634
 C    2.546228102173   -1.874189864779   -4.841710132709
 H    4.180379194211   -1.909716575292   -3.529605014628
 H    3.066389525616   -0.664549271968   -3.217370436068
 H    2.690873734579   -2.269684095299   -2.793551762257
 H    1.491091438066   -1.600189856728   -4.738262964811
 H    3.025929544916   -1.225330515308   -5.582958049761
 H    2.627734693109   -2.927010945520   -5.133634753086
