18

 N   -1.974686551896    1.037565323102    2.179865688980
 C   -1.333426551896    1.236945323102    3.502895688980
 H   -2.967576551896    1.272465323102    2.190785688980
 H   -1.853586551896    0.027295323102    1.878555688980
 H   -1.478076551896    1.632435323102    1.454735688980
 H   -0.278286551896    0.962945323102    3.399445688980
 H   -1.813126551896    0.588075323102    4.244145688980
 H   -1.414936551896    2.289765323102    3.794815688980
CL   -0.229136551896    2.536885323102    0.240255688980
CL   -1.235656551896   -1.767234676898    1.376735688980
 N    3.572879408767   -1.877308180801   -3.944119476701
 C    2.931620240318   -2.076687561977   -5.267146396775
 H    4.565771332356   -2.112214272490   -3.955041278695
 H    3.451781663761   -0.867046969166   -3.642806700135
 H    3.076265872724   -2.472181792498   -3.218988026324
 H    1.876483576211   -1.802687553927   -5.163699228878
 H    3.411321683061   -1.427828212506   -6.008394313828
 H    3.013126831253   -3.129508642718   -5.559071017152
