18

 N   -1.989825416402    1.045519780127    2.196577555467
 C   -1.348565416402    1.244899780127    3.519607555467
 H   -2.982715416402    1.280419780127    2.207497555467
 H   -1.868725416402    0.035249780127    1.895267555467
 H   -1.493215416402    1.640389780127    1.471447555467
 H   -0.293425416402    0.970899780127    3.416157555467
 H   -1.828265416402    0.596029780127    4.260857555467
 H   -1.430075416402    2.297719780127    3.811527555467
CL   -0.244275416402    2.544839780127    0.256967555467
CL   -1.250795416402   -1.759280219873    1.393447555467
 N    3.621053426035   -1.902620392950   -3.997299009709
 C    2.979794257586   -2.101999774127   -5.320325929784
 H    4.613945349624   -2.137526484640   -4.008220811703
 H    3.499955681029   -0.892359181316   -3.695986233143
 H    3.124439889992   -2.497494004647   -3.272167559333
 H    1.924657593479   -1.827999766077   -5.216878761887
 H    3.459495700329   -1.453140424656   -6.061573846836
 H    3.061300848521   -3.154820854868   -5.612250550161
