18

 N   -2.035242009922    1.069383151203    2.246713154928
 C   -1.393982009922    1.268763151203    3.569743154928
 H   -3.028132009922    1.304283151203    2.257633154928
 H   -1.914142009922    0.059113151203    1.945403154928
 H   -1.538632009922    1.664253151203    1.521583154928
 H   -0.338842009922    0.994763151203    3.466293154928
 H   -1.873682009922    0.619893151203    4.310993154928
 H   -1.475492009922    2.321583151203    3.861663154928
CL   -0.289692009922    2.568703151203    0.307103154928
CL   -1.296212009922   -1.735416848797    1.443583154928
 N    3.765575477839   -1.978557029400   -4.156837608734
 C    3.124316309390   -2.177936410577   -5.479864528809
 H    4.758467401428   -2.213463121089   -4.167759410728
 H    3.644477732833   -0.968295817766   -3.855524832168
 H    3.268961941796   -2.573430641097   -3.431706158358
 H    2.069179645284   -1.903936402526   -5.376417360912
 H    3.604017752133   -1.529077061105   -6.221112445861
 H    3.205822900326   -3.230757491317   -5.771789149186
