18

 N   -2.065519738934    1.085292065253    2.280136887902
 C   -1.424259738934    1.284672065253    3.603166887902
 H   -3.058409738934    1.320192065253    2.291056887902
 H   -1.944419738934    0.075022065253    1.978826887902
 H   -1.568909738934    1.680162065253    1.555006887902
 H   -0.369119738934    1.010672065253    3.499716887902
 H   -1.903959738934    0.635802065253    4.344416887902
 H   -1.505769738934    2.337492065253    3.895086887902
CL   -0.319969738934    2.584612065253    0.340526887902
CL   -1.326489738934   -1.719507934747    1.477006887902
 N    3.861923512375   -2.029181453699   -4.263196674751
 C    3.220664343926   -2.228560834876   -5.586223594826
 H    4.854815435964   -2.264087545389   -4.274118476745
 H    3.740825767370   -1.018920242065   -3.961883898185
 H    3.365309976332   -2.624055065396   -3.538065224374
 H    2.165527679820   -1.954560826826   -5.482776426928
 H    3.700365786669   -1.579701485405   -6.327471511878
 H    3.302170934862   -3.281381915617   -5.878148215202
