18

 N   -2.095797467947    1.101200979304    2.313560620876
 C   -1.454537467947    1.300580979304    3.636590620876
 H   -3.088687467947    1.336100979304    2.324480620876
 H   -1.974697467947    0.090930979304    2.012250620876
 H   -1.599187467947    1.696070979304    1.588430620876
 H   -0.399397467947    1.026580979304    3.533140620876
 H   -1.934237467947    0.651710979304    4.377840620876
 H   -1.536047467947    2.353400979304    3.928510620876
CL   -0.350247467947    2.600520979304    0.373950620876
CL   -1.356767467947   -1.703599020696    1.510430620876
 N    3.958271546911   -2.079805877999   -4.369555740768
 C    3.317012378463   -2.279185259176   -5.692582660842
 H    4.951163470500   -2.314711969688   -4.380477542762
 H    3.837173801906   -1.069544666365   -4.068242964202
 H    3.461658010868   -2.674679489696   -3.644424290391
 H    2.261875714356   -2.005185251125   -5.589135492945
 H    3.796713821205   -1.630325909705   -6.433830577895
 H    3.398518969398   -3.332006339916   -5.984507281219
