18

 N   -2.110936332453    1.109155436329    2.330272487363
 C   -1.469676332453    1.308535436329    3.653302487363
 H   -3.103826332453    1.344055436329    2.341192487363
 H   -1.989836332453    0.098885436329    2.028962487363
 H   -1.614326332453    1.704025436329    1.605142487363
 H   -0.414536332453    1.034535436329    3.549852487363
 H   -1.949376332453    0.659665436329    4.394552487363
 H   -1.551186332453    2.361355436329    3.945222487363
CL   -0.365386332453    2.608475436329    0.390662487363
CL   -1.371906332453   -1.695644563671    1.527142487363
 N    4.006445564179   -2.105118090149   -4.422735273776
 C    3.365186395731   -2.304497471326   -5.745762193851
 H    4.999337487768   -2.340024181838   -4.433657075770
 H    3.885347819174   -1.094856878514   -4.121422497210
 H    3.509832028136   -2.699991701846   -3.697603823399
 H    2.310049731624   -2.030497463275   -5.642315025953
 H    3.844887838473   -1.655638121854   -6.487010110903
 H    3.446692986666   -3.357318552066   -6.037686814228
