18

 N   -2.126075196960    1.117109893354    2.346984353850
 C   -1.484815196960    1.316489893354    3.670014353850
 H   -3.118965196960    1.352009893354    2.357904353850
 H   -2.004975196960    0.106839893354    2.045674353850
 H   -1.629465196960    1.711979893354    1.621854353850
 H   -0.429675196960    1.042489893354    3.566564353850
 H   -1.964515196960    0.667619893354    4.411264353850
 H   -1.566325196960    2.369309893354    3.961934353850
CL   -0.380525196960    2.616429893354    0.407374353850
CL   -1.387045196960   -1.687690106646    1.543854353850
 N    4.054619581448   -2.130430302298   -4.475914806784
 C    3.413360412999   -2.329809683475   -5.798941726859
 H    5.047511505037   -2.365336393988   -4.486836608778
 H    3.933521836442   -1.120169090664   -4.174602030218
 H    3.558006045404   -2.725303913996   -3.750783356408
 H    2.358223748892   -2.055809675425   -5.695494558962
 H    3.893061855741   -1.680950334004   -6.540189643911
 H    3.494867003934   -3.382630764216   -6.090866347236
