18

 N   -2.201769519492    1.156882178481    2.430543686285
 C   -1.560509519492    1.356262178481    3.753573686285
 H   -3.194659519492    1.391782178481    2.441463686285
 H   -2.080669519492    0.146612178481    2.129233686285
 H   -1.705159519492    1.751752178481    1.705413686285
 H   -0.505369519492    1.082262178481    3.650123686285
 H   -2.040209519492    0.707392178481    4.494823686285
 H   -1.642019519492    2.409082178481    4.045493686285
CL   -0.456219519492    2.656202178481    0.490933686285
CL   -1.462739519492   -1.647917821519    1.627413686285
 N    4.295489667788   -2.256991363047   -4.741812471826
 C    3.654230499339   -2.456370744224   -6.064839391901
 H    5.288381591377   -2.491897454737   -4.752734273820
 H    4.174391922782   -1.246730151413   -4.440499695260
 H    3.798876131745   -2.851864974744   -4.016681021449
 H    2.599093835233   -2.182370736174   -5.961392224003
 H    4.133931942082   -1.807511394753   -6.806087308953
 H    3.735737090275   -3.509191824965   -6.356764012278
