18

 N   -2.322880435542    1.220517834682    2.564238618180
 C   -1.681620435542    1.419897834682    3.887268618180
 H   -3.315770435542    1.455417834682    2.575158618180
 H   -2.201780435542    0.210247834682    2.262928618180
 H   -1.826270435542    1.815387834682    1.839108618180
 H   -0.626480435542    1.145897834682    3.783818618180
 H   -2.161320435542    0.771027834682    4.628518618180
 H   -1.763130435542    2.472717834682    4.179188618180
CL   -0.577330435542    2.719837834682    0.624628618180
CL   -1.583850435542   -1.584282165318    1.761108618180
 N    4.680881805933   -2.459489060246   -5.167248735893
 C    4.039622637484   -2.658868441423   -6.490275655967
 H    5.673773729522   -2.694395151935   -5.178170537887
 H    4.559784060927   -1.449227848612   -4.865935959327
 H    4.184268269890   -3.054362671943   -4.442117285516
 H    2.984485973377   -2.384868433372   -6.386828488070
 H    4.519324080227   -2.010009091951   -7.231523573020
 H    4.121129228419   -3.711689522163   -6.782200276344
