12

 C   -1.764177565804    1.113078440161   -1.014997501041
 C   -0.651835565804    0.093600440161   -1.014997501041
 O   -1.156166565804   -1.172852559839   -1.014997501041
 C   -0.141700565804   -2.206591559839   -1.014997501041
 O    0.545804434196    0.338093440161   -1.014997501041
 H   -1.331607565804    2.120088440161   -1.014997501041
 H   -2.396514565804    0.970506440161   -0.126382501041
 H   -2.396514565804    0.970506440161   -1.903612501041
 H   -0.695797565804   -3.151715559839   -1.014997501041
 H    0.488094434196   -2.120292559839   -0.118807501041
 H    0.488094434196   -2.120292559839   -1.911187501041
RB    0.545804434196    0.338093440161    0.885002498959
