12

 C   -1.764177565804    1.113078440161   -1.282102106578
 C   -0.651835565804    0.093600440161   -1.282102106578
 O   -1.156166565804   -1.172852559839   -1.282102106578
 C   -0.141700565804   -2.206591559839   -1.282102106578
 O    0.545804434196    0.338093440161   -1.282102106578
 H   -1.331607565804    2.120088440161   -1.282102106578
 H   -2.396514565804    0.970506440161   -0.393487106578
 H   -2.396514565804    0.970506440161   -2.170717106578
 H   -0.695797565804   -3.151715559839   -1.282102106578
 H    0.488094434196   -2.120292559839   -0.385912106578
 H    0.488094434196   -2.120292559839   -2.178292106578
RB    0.545804434196    0.338093440161    1.117897893422
