12

 C   -1.764177565804    1.113078440161   -2.243678686512
 C   -0.651835565804    0.093600440161   -2.243678686512
 O   -1.156166565804   -1.172852559839   -2.243678686512
 C   -0.141700565804   -2.206591559839   -2.243678686512
 O    0.545804434196    0.338093440161   -2.243678686512
 H   -1.331607565804    2.120088440161   -2.243678686512
 H   -2.396514565804    0.970506440161   -1.355063686512
 H   -2.396514565804    0.970506440161   -3.132293686512
 H   -0.695797565804   -3.151715559839   -2.243678686512
 H    0.488094434196   -2.120292559839   -1.347488686512
 H    0.488094434196   -2.120292559839   -3.139868686512
RB    0.545804434196    0.338093440161    1.956321313488
