12

 C   -1.764177565804    1.113078440161   -2.350520528726
 C   -0.651835565804    0.093600440161   -2.350520528726
 O   -1.156166565804   -1.172852559839   -2.350520528726
 C   -0.141700565804   -2.206591559839   -2.350520528726
 O    0.545804434196    0.338093440161   -2.350520528726
 H   -1.331607565804    2.120088440161   -2.350520528726
 H   -2.396514565804    0.970506440161   -1.461905528726
 H   -2.396514565804    0.970506440161   -3.239135528726
 H   -0.695797565804   -3.151715559839   -2.350520528726
 H    0.488094434196   -2.120292559839   -1.454330528726
 H    0.488094434196   -2.120292559839   -3.246710528726
RB    0.545804434196    0.338093440161    2.049479471274
