12

 C   -1.764177565804    1.113078440161   -2.617625134263
 C   -0.651835565804    0.093600440161   -2.617625134263
 O   -1.156166565804   -1.172852559839   -2.617625134263
 C   -0.141700565804   -2.206591559839   -2.617625134263
 O    0.545804434196    0.338093440161   -2.617625134263
 H   -1.331607565804    2.120088440161   -2.617625134263
 H   -2.396514565804    0.970506440161   -1.729010134263
 H   -2.396514565804    0.970506440161   -3.506240134263
 H   -0.695797565804   -3.151715559839   -2.617625134263
 H    0.488094434196   -2.120292559839   -1.721435134263
 H    0.488094434196   -2.120292559839   -3.513815134263
RB    0.545804434196    0.338093440161    2.282374865737
