12

 C   -1.764177565804    1.113078440161   -3.632622635304
 C   -0.651835565804    0.093600440161   -3.632622635304
 O   -1.156166565804   -1.172852559839   -3.632622635304
 C   -0.141700565804   -2.206591559839   -3.632622635304
 O    0.545804434196    0.338093440161   -3.632622635304
 H   -1.331607565804    2.120088440161   -3.632622635304
 H   -2.396514565804    0.970506440161   -2.744007635304
 H   -2.396514565804    0.970506440161   -4.521237635304
 H   -0.695797565804   -3.151715559839   -3.632622635304
 H    0.488094434196   -2.120292559839   -2.736432635304
 H    0.488094434196   -2.120292559839   -4.528812635304
RB    0.545804434196    0.338093440161    3.167377364696
