12

 C   -1.764177565804    1.113078440161   -4.433936451916
 C   -0.651835565804    0.093600440161   -4.433936451916
 O   -1.156166565804   -1.172852559839   -4.433936451916
 C   -0.141700565804   -2.206591559839   -4.433936451916
 O    0.545804434196    0.338093440161   -4.433936451916
 H   -1.331607565804    2.120088440161   -4.433936451916
 H   -2.396514565804    0.970506440161   -3.545321451916
 H   -2.396514565804    0.970506440161   -5.322551451916
 H   -0.695797565804   -3.151715559839   -4.433936451916
 H    0.488094434196   -2.120292559839   -3.537746451916
 H    0.488094434196   -2.120292559839   -5.330126451916
RB    0.545804434196    0.338093440161    3.866063548084
