8

 C    0.370131969524   -1.613818659851   -0.532669809907
 H    1.405631969524   -1.989906659851   -0.532669809907
 H   -0.163068030476   -1.994521659851    0.355667190093
 H   -0.163068030476   -1.994521659851   -1.421006809907
 C    0.328365969524   -0.057734659851   -0.532669809907
 O   -0.838830030476    0.448488340149   -0.532669809907
 O    1.452436969524    0.537683340149   -0.532669809907
NA   -0.838830030476    0.448488340149    1.367330190093
