8

 C    0.370131969524   -1.613818659851   -0.700881328825
 H    1.405631969524   -1.989906659851   -0.700881328825
 H   -0.163068030476   -1.994521659851    0.187455671175
 H   -0.163068030476   -1.994521659851   -1.589218328825
 C    0.328365969524   -0.057734659851   -0.700881328825
 O   -0.838830030476    0.448488340149   -0.700881328825
 O    1.452436969524    0.537683340149   -0.700881328825
NA   -0.838830030476    0.448488340149    1.799118671175
