8

 C    0.370131969524   -1.613818659851   -0.728916581978
 H    1.405631969524   -1.989906659851   -0.728916581978
 H   -0.163068030476   -1.994521659851    0.159420418022
 H   -0.163068030476   -1.994521659851   -1.617253581978
 C    0.328365969524   -0.057734659851   -0.728916581978
 O   -0.838830030476    0.448488340149   -0.728916581978
 O    1.452436969524    0.537683340149   -0.728916581978
NA   -0.838830030476    0.448488340149    1.871083418022
