8

 C    0.370131969524   -1.613818659851   -1.485868417109
 H    1.405631969524   -1.989906659851   -1.485868417109
 H   -0.163068030476   -1.994521659851   -0.597531417109
 H   -0.163068030476   -1.994521659851   -2.374205417109
 C    0.328365969524   -0.057734659851   -1.485868417109
 O   -0.838830030476    0.448488340149   -1.485868417109
 O    1.452436969524    0.537683340149   -1.485868417109
NA   -0.838830030476    0.448488340149    3.814131582891
