8

 C    0.370131969524   -1.613818659851   -2.158714492781
 H    1.405631969524   -1.989906659851   -2.158714492781
 H   -0.163068030476   -1.994521659851   -1.270377492781
 H   -0.163068030476   -1.994521659851   -3.047051492781
 C    0.328365969524   -0.057734659851   -2.158714492781
 O   -0.838830030476    0.448488340149   -2.158714492781
 O    1.452436969524    0.537683340149   -2.158714492781
NA   -0.838830030476    0.448488340149    5.541285507219
