8

 C    0.370131969524   -1.613818659851   -2.747454808994
 H    1.405631969524   -1.989906659851   -2.747454808994
 H   -0.163068030476   -1.994521659851   -1.859117808994
 H   -0.163068030476   -1.994521659851   -3.635791808994
 C    0.328365969524   -0.057734659851   -2.747454808994
 O   -0.838830030476    0.448488340149   -2.747454808994
 O    1.452436969524    0.537683340149   -2.747454808994
NA   -0.838830030476    0.448488340149    7.052545191006
