16

 N   -1.855045656730   -0.764707663934    0.875040745415
 C   -0.622919924463   -1.394997943942    0.875995705723
 N   -0.352778988337   -2.715883418910    0.872531516776
 C    0.975350180126   -2.934077311660    0.888098945439
 H    1.289158463096   -3.980756044150    0.891478516130
 N    1.987699623167   -2.026096354519    0.902070215714
 C    1.675482879260   -0.715275271270    0.897423811814
 N    2.683109834062    0.209223366035    0.855601974883
 H    3.614561371449   -0.121306742717    1.078059909016
 H    2.450372328035    1.169194121074    1.080412220323
 C    0.309982038386   -0.338581417403    0.888652724099
 N   -0.313547272805    0.900384283227    0.898530933117
 C   -1.613472759962    0.592304894866    0.890076079959
 H   -2.423526288749    1.318885695968    0.894124217822
 H   -2.758835333900   -1.224964787768    0.867437689482
CS   -0.308343455354    0.917353796142   -0.901381552510
