16

 N   -1.855332439105   -0.765642853775    0.974233920838
 C   -0.623206706838   -1.395933133783    0.975188881146
 N   -0.353065770712   -2.716818608751    0.971724692199
 C    0.975063397751   -2.935012501501    0.987292120862
 H    1.288871680721   -3.981691233991    0.990671691553
 N    1.987412840792   -2.027031544360    1.001263391137
 C    1.675196096885   -0.716210461111    0.996616987237
 N    2.682823051687    0.208288176194    0.954795150306
 H    3.614274589074   -0.122241932558    1.177253084439
 H    2.450085545660    1.168258931233    1.179605395746
 C    0.309695256011   -0.339516607244    0.987845899522
 N   -0.313834055180    0.899449093386    0.997724108540
 C   -1.613759542337    0.591369705025    0.989269255382
 H   -2.423813071124    1.317950506127    0.993317393245
 H   -2.759122116275   -1.225899977609    0.966630864905
CS   -0.308052035790    0.918304107736   -1.002178653267
