16

 N   -1.855906003855   -0.767513233458    1.172620271686
 C   -0.623780271588   -1.397803513466    1.173575231994
 N   -0.353639335462   -2.718688988434    1.170111043047
 C    0.974489833001   -2.936882881184    1.185678471710
 H    1.288298115971   -3.983561613674    1.189058042401
 N    1.986839276042   -2.028901924043    1.199649741985
 C    1.674622532135   -0.718080840794    1.195003338085
 N    2.682249486937    0.206417796511    1.153181501154
 H    3.613701024324   -0.124112312241    1.375639435287
 H    2.449511980910    1.166388551550    1.377991746594
 C    0.309121691261   -0.341386986927    1.186232250370
 N   -0.314407619930    0.897578713703    1.196110459388
 C   -1.614333107087    0.589499325342    1.187655606230
 H   -2.424386635874    1.316080126444    1.191703744093
 H   -2.759695681025   -1.227770357292    1.165017215753
CS   -0.307469196662    0.920204730924   -1.203772854781
