16

 N   -1.856049395043   -0.767980828378    1.222216859398
 C   -0.623923662776   -1.398271108386    1.223171819706
 N   -0.353782726650   -2.719156583354    1.219707630759
 C    0.974346441813   -2.937350476104    1.235275059422
 H    1.288154724783   -3.984029208594    1.238654630113
 N    1.986695884854   -2.029369518963    1.249246329697
 C    1.674479140947   -0.718548435714    1.244599925797
 N    2.682106095749    0.205950201591    1.202778088866
 H    3.613557633136   -0.124579907161    1.425236022999
 H    2.449368589722    1.165920956630    1.427588334306
 C    0.308978300073   -0.341854581847    1.235828838082
 N   -0.314551011118    0.897111118783    1.245707047100
 C   -1.614476498275    0.589031730422    1.237252193942
 H   -2.424530027062    1.315612531524    1.241300331805
 H   -2.759839072213   -1.228237952212    1.214613803465
CS   -0.307323486879    0.920679886721   -1.254171405160
