16

 N   -1.856192786230   -0.768448423299    1.271813447110
 C   -0.624067053963   -1.398738703307    1.272768407418
 N   -0.353926117837   -2.719624178275    1.269304218471
 C    0.974203050626   -2.937818071025    1.284871647134
 H    1.288011333596   -3.984496803515    1.288251217825
 N    1.986552493667   -2.029837113884    1.298842917409
 C    1.674335749760   -0.719016030635    1.294196513509
 N    2.681962704562    0.205482606670    1.252374676578
 H    3.613414241949   -0.125047502082    1.474832610711
 H    2.449225198535    1.165453361709    1.477184922018
 C    0.308834908886   -0.342322176768    1.285425425794
 N   -0.314694402305    0.896643523862    1.295303634812
 C   -1.614619889462    0.588564135501    1.286848781654
 H   -2.424673418249    1.315144936603    1.290896919517
 H   -2.759982463400   -1.228705547133    1.264210391177
CS   -0.307177777097    0.921155042518   -1.304569955538
