16

 N   -1.856336177418   -0.768916018219    1.321410034821
 C   -0.624210445151   -1.399206298227    1.322364995129
 N   -0.354069509025   -2.720091773195    1.318900806182
 C    0.974059659438   -2.938285665945    1.334468234845
 H    1.287867942408   -3.984964398435    1.337847805536
 N    1.986409102479   -2.030304708804    1.348439505120
 C    1.674192358572   -0.719483625555    1.343793101220
 N    2.681819313374    0.205015011750    1.301971264289
 H    3.613270850761   -0.125515097002    1.524429198422
 H    2.449081807347    1.164985766789    1.526781509729
 C    0.308691517698   -0.342789771688    1.335022013505
 N   -0.314837793493    0.896175928942    1.344900222523
 C   -1.614763280650    0.588096540581    1.336445369365
 H   -2.424816809437    1.314677341683    1.340493507228
 H   -2.760125854588   -1.229173142053    1.313806978888
CS   -0.307032067315    0.921630198315   -1.354968505917
