16

 N   -1.856479568605   -0.769383613140    1.371006622533
 C   -0.624353836338   -1.399673893148    1.371961582841
 N   -0.354212900212   -2.720559368116    1.368497393894
 C    0.973916268251   -2.938753260866    1.384064822557
 H    1.287724551221   -3.985431993356    1.387444393248
 N    1.986265711292   -2.030772303725    1.398036092832
 C    1.674048967385   -0.719951220476    1.393389688932
 N    2.681675922187    0.204547416829    1.351567852001
 H    3.613127459574   -0.125982691923    1.574025786134
 H    2.448938416160    1.164518171868    1.576378097441
 C    0.308548126511   -0.343257366609    1.384618601217
 N   -0.314981184680    0.895708334021    1.394496810235
 C   -1.614906671837    0.587628945660    1.386041957077
 H   -2.424960200624    1.314209746762    1.390090094940
 H   -2.760269245775   -1.229640736974    1.363403566600
CS   -0.306886357533    0.922105354112   -1.405367056295
