16

 N   -1.857483306918   -0.772656777584    1.718182736516
 C   -0.625357574651   -1.402947057592    1.719137696824
 N   -0.355216638525   -2.723832532560    1.715673507877
 C    0.972912529938   -2.942026425310    1.731240936540
 H    1.286720812908   -3.988705157800    1.734620507231
 N    1.985261972979   -2.034045468169    1.745212206815
 C    1.673045229072   -0.723224384920    1.740565802915
 N    2.680672183874    0.201274252385    1.698743965984
 H    3.612123721261   -0.129255856367    1.921201900117
 H    2.447934677847    1.161245007424    1.923554211424
 C    0.307544388198   -0.346530531053    1.731794715200
 N   -0.315984922993    0.892435169577    1.741672924218
 C   -1.615910410150    0.584355781216    1.733218071060
 H   -2.425963938937    1.310936582318    1.737266208923
 H   -2.761272984088   -1.232913901418    1.710579680583
CS   -0.305866389059    0.925431444690   -1.758156908945
