16

 N   -1.857913480480   -0.774059562345    1.866972499652
 C   -0.625787748213   -1.404349842353    1.867927459960
 N   -0.355646812087   -2.725235317321    1.864463271013
 C    0.972482356376   -2.943429210071    1.880030699676
 H    1.286290639346   -3.990107942561    1.883410270367
 N    1.984831799417   -2.035448252930    1.894001969951
 C    1.672615055510   -0.724627169681    1.889355566051
 N    2.680242010312    0.199871467624    1.847533729120
 H    3.611693547699   -0.130658641128    2.069991663253
 H    2.447504504285    1.159842222663    2.072343974560
 C    0.307114214636   -0.347933315814    1.880584478336
 N   -0.316415096555    0.891032384816    1.890462687354
 C   -1.616340583712    0.582952996455    1.882007834196
 H   -2.426394112499    1.309533797557    1.886055972059
 H   -2.761703157650   -1.234316686179    1.859369443719
CS   -0.305429259713    0.926856912081   -1.909352560081
