16

 N   -1.858343654042   -0.775462347107    2.015762262787
 C   -0.626217921775   -1.405752627115    2.016717223095
 N   -0.356076985649   -2.726638102083    2.013253034148
 C    0.972052182814   -2.944831994833    2.028820462811
 H    1.285860465784   -3.991510727323    2.032200033502
 N    1.984401625855   -2.036851037692    2.042791733086
 C    1.672184881948   -0.726029954443    2.038145329186
 N    2.679811836750    0.198468682862    1.996323492255
 H    3.611263374137   -0.132061425890    2.218781426388
 H    2.447074330723    1.158439437901    2.221133737695
 C    0.306684041074   -0.349336100576    2.029374241471
 N   -0.316845270117    0.889629600054    2.039252450489
 C   -1.616770757274    0.581550211693    2.030797597331
 H   -2.426824286061    1.308131012795    2.034845735194
 H   -2.762133331212   -1.235719470941    2.008159206854
CS   -0.304992130367    0.928282379472   -2.060548211216
