16

 N   -1.858487045230   -0.775929942028    2.065358850499
 C   -0.626361312963   -1.406220222036    2.066313810807
 N   -0.356220376837   -2.727105697004    2.062849621860
 C    0.971908791626   -2.945299589754    2.078417050523
 H    1.285717074596   -3.991978322244    2.081796621214
 N    1.984258234667   -2.037318632613    2.092388320798
 C    1.672041490760   -0.726497549364    2.087741916898
 N    2.679668445562    0.198001087941    2.045920079967
 H    3.611119982949   -0.132529020811    2.268378014100
 H    2.446930939535    1.157971842980    2.270730325407
 C    0.306540649886   -0.349803695497    2.078970829183
 N   -0.316988661305    0.889162005133    2.088849038201
 C   -1.616914148462    0.581082616772    2.080394185043
 H   -2.426967677249    1.307663417874    2.084442322906
 H   -2.762276722400   -1.236187065862    2.057755794566
CS   -0.304846420585    0.928757535269   -2.110946761595
