16

 N   -1.858773827605   -0.776865131869    2.164552025923
 C   -0.626648095338   -1.407155411877    2.165506986231
 N   -0.356507159212   -2.728040886845    2.162042797284
 C    0.971622009251   -2.946234779595    2.177610225947
 H    1.285430292221   -3.992913512085    2.180989796638
 N    1.983971452292   -2.038253822454    2.191581496222
 C    1.671754708385   -0.727432739205    2.186935092322
 N    2.679381663187    0.197065898100    2.145113255391
 H    3.610833200574   -0.133464210652    2.367571189524
 H    2.446644157160    1.157036653139    2.369923500831
 C    0.306253867511   -0.350738885338    2.178164004607
 N   -0.317275443680    0.888226815292    2.188042213625
 C   -1.617200930837    0.580147426931    2.179587360467
 H   -2.427254459624    1.306728228033    2.183635498330
 H   -2.762563504775   -1.237122255703    2.156948969990
CS   -0.304555001021    0.929707846863   -2.211743862352
