16

 N   -1.859204001167   -0.778267916630    2.313341789058
 C   -0.627078268900   -1.408558196638    2.314296749366
 N   -0.356937332774   -2.729443671606    2.310832560419
 C    0.971191835689   -2.947637564356    2.326399989082
 H    1.285000118659   -3.994316296846    2.329779559773
 N    1.983541278730   -2.039656607215    2.340371259357
 C    1.671324534823   -0.728835523966    2.335724855457
 N    2.678951489625    0.195663113339    2.293903018526
 H    3.610403027012   -0.134866995413    2.516360952659
 H    2.446213983598    1.155633868378    2.518713263966
 C    0.305823693949   -0.352141670099    2.326953767742
 N   -0.317705617242    0.886824030531    2.336831976760
 C   -1.617631104399    0.578744642170    2.328377123602
 H   -2.427684633186    1.305325443272    2.332425261465
 H   -2.762993678337   -1.238525040464    2.305738733125
CS   -0.304117871674    0.931133314254   -2.362939513487
