16

 N   -1.859347392355   -0.778735511551    2.362938376770
 C   -0.627221660088   -1.409025791559    2.363893337078
 N   -0.357080723962   -2.729911266527    2.360429148131
 C    0.971048444501   -2.948105159277    2.375996576794
 H    1.284856727471   -3.994783891767    2.379376147485
 N    1.983397887542   -2.040124202136    2.389967847069
 C    1.671181143635   -0.729303118887    2.385321443169
 N    2.678808098437    0.195195518418    2.343499606238
 H    3.610259635824   -0.135334590334    2.565957540371
 H    2.446070592410    1.155166273457    2.568309851678
 C    0.305680302761   -0.352609265020    2.376550355454
 N   -0.317849008430    0.886356435610    2.386428564472
 C   -1.617774495587    0.578277047249    2.377973711314
 H   -2.427828024374    1.304857848351    2.382021849177
 H   -2.763137069525   -1.238992635385    2.355335320837
CS   -0.303972161892    0.931608470051   -2.413338063866
