16

 N   -1.859634174730   -0.779670701392    2.462131552194
 C   -0.627508442463   -1.409960981400    2.463086512502
 N   -0.357367506337   -2.730846456368    2.459622323555
 C    0.970761662126   -2.949040349118    2.475189752218
 H    1.284569945096   -3.995719081608    2.478569322909
 N    1.983111105167   -2.041059391977    2.489161022493
 C    1.670894361260   -0.730238308728    2.484514618593
 N    2.678521316062    0.194260328577    2.442692781662
 H    3.609972853449   -0.136269780175    2.665150715795
 H    2.445783810035    1.154231083616    2.667503027102
 C    0.305393520386   -0.353544454861    2.475743530878
 N   -0.318135790805    0.885421245769    2.485621739896
 C   -1.618061277962    0.577341857408    2.477166886738
 H   -2.428114806749    1.303922658510    2.481215024601
 H   -2.763423851900   -1.239927825226    2.454528496261
CS   -0.303680742328    0.932558781644   -2.514135164623
