16

 N   -1.859920957105   -0.780605891233    2.561324727618
 C   -0.627795224838   -1.410896171241    2.562279687926
 N   -0.357654288712   -2.731781646209    2.558815498979
 C    0.970474879751   -2.949975538959    2.574382927642
 H    1.284283162721   -3.996654271449    2.577762498333
 N    1.982824322792   -2.041994581818    2.588354197917
 C    1.670607578885   -0.731173498569    2.583707794017
 N    2.678234533687    0.193325138736    2.541885957086
 H    3.609686071074   -0.137204970016    2.764343891219
 H    2.445497027660    1.153295893775    2.766696202526
 C    0.305106738011   -0.354479644702    2.574936706302
 N   -0.318422573180    0.884486055928    2.584814915320
 C   -1.618348060337    0.576406667567    2.576360062162
 H   -2.428401589124    1.302987468669    2.580408200025
 H   -2.763710634275   -1.240863015067    2.553721671685
CS   -0.303389322764    0.933509093238   -2.614932265380
