16

 N   -1.860351130667   -0.782008675995    2.710114490753
 C   -0.628225398400   -1.412298956003    2.711069451061
 N   -0.358084462274   -2.733184430971    2.707605262114
 C    0.970044706189   -2.951378323721    2.723172690777
 H    1.283852989159   -3.998057056211    2.726552261468
 N    1.982394149230   -2.043397366580    2.737143961052
 C    1.670177405323   -0.732576283331    2.732497557152
 N    2.677804360125    0.191922353974    2.690675720221
 H    3.609255897512   -0.138607754778    2.913133654354
 H    2.445066854098    1.151893109013    2.915485965661
 C    0.304676564449   -0.355882429464    2.723726469437
 N   -0.318852746742    0.883083271166    2.733604678455
 C   -1.618778233899    0.575003882805    2.725149825297
 H   -2.428831762686    1.301584683907    2.729197963160
 H   -2.764140807837   -1.242265799829    2.702511434820
CS   -0.302952193418    0.934934560629   -2.766127916516
