16

 N   -1.860494521855   -0.782476270915    2.759711078465
 C   -0.628368789588   -1.412766550923    2.760666038773
 N   -0.358227853462   -2.733652025891    2.757201849826
 C    0.969901315001   -2.951845918641    2.772769278489
 H    1.283709597971   -3.998524651131    2.776148849180
 N    1.982250758042   -2.043864961500    2.786740548764
 C    1.670034014135   -0.733043878251    2.782094144864
 N    2.677660968937    0.191454759054    2.740272307933
 H    3.609112506324   -0.139075349698    2.962730242066
 H    2.444923462910    1.151425514093    2.965082553373
 C    0.304533173261   -0.356350024384    2.773323057149
 N   -0.318996137930    0.882615676246    2.783201266167
 C   -1.618921625087    0.574536287885    2.774746413009
 H   -2.428975153874    1.301117088987    2.778794550872
 H   -2.764284199025   -1.242733394749    2.752108022532
CS   -0.302806483636    0.935409716426   -2.816526466894
