16

 N   -1.860781304230   -0.783411460756    2.858904253889
 C   -0.628655571963   -1.413701740764    2.859859214197
 N   -0.358514635837   -2.734587215732    2.856395025250
 C    0.969614532626   -2.952781108482    2.871962453913
 H    1.283422815596   -3.999459840972    2.875342024604
 N    1.981963975667   -2.044800151341    2.885933724188
 C    1.669747231760   -0.733979068092    2.881287320288
 N    2.677374186562    0.190519569213    2.839465483357
 H    3.608825723949   -0.140010539539    3.061923417490
 H    2.444636680535    1.150490324252    3.064275728797
 C    0.304246390886   -0.357285214225    2.872516232573
 N   -0.319282920305    0.881680486405    2.882394441591
 C   -1.619208407462    0.573601098044    2.873939588433
 H   -2.429261936249    1.300181899146    2.877987726296
 H   -2.764570981400   -1.243668584590    2.851301197956
CS   -0.302515064072    0.936360028020   -2.917323567651
