16

 N   -1.861068086605   -0.784346650598    2.958097429312
 C   -0.628942354338   -1.414636930606    2.959052389620
 N   -0.358801418212   -2.735522405574    2.955588200673
 C    0.969327750251   -2.953716298324    2.971155629336
 H    1.283136033221   -4.000395030814    2.974535200027
 N    1.981677193292   -2.045735341183    2.985126899611
 C    1.669460449385   -0.734914257934    2.980480495711
 N    2.677087404187    0.189584379371    2.938658658780
 H    3.608538941574   -0.140945729381    3.161116592913
 H    2.444349898160    1.149555134410    3.163468904220
 C    0.303959608511   -0.358220404067    2.971709407996
 N   -0.319569702680    0.880745296563    2.981587617014
 C   -1.619495189837    0.572665908202    2.973132763856
 H   -2.429548718624    1.299246709304    2.977180901719
 H   -2.764857763775   -1.244603774432    2.950494373379
CS   -0.302223644508    0.937310339614   -3.018120668408
