16

 N   -1.861641651355   -0.786217030280    3.156483780160
 C   -0.629515919088   -1.416507310288    3.157438740468
 N   -0.359374982962   -2.737392785256    3.153974551521
 C    0.968754185501   -2.955586678006    3.169541980184
 H    1.282562468471   -4.002265410496    3.172921550875
 N    1.981103628542   -2.047605720865    3.183513250459
 C    1.668886884635   -0.736784637616    3.178866846559
 N    2.676513839437    0.187713999689    3.137045009628
 H    3.607965376824   -0.142816109063    3.359502943761
 H    2.443776333410    1.147684754728    3.361855255068
 C    0.303386043761   -0.360090783749    3.170095758844
 N   -0.320143267430    0.878874916881    3.179973967862
 C   -1.620068754587    0.570795528520    3.171519114704
 H   -2.430122283374    1.297376329622    3.175567252567
 H   -2.765431328525   -1.246474154114    3.148880724227
CS   -0.301640805379    0.939210962802   -3.219714869923
