16

 N   -1.862501998479   -0.789022599803    3.454063306431
 C   -0.630376266212   -1.419312879811    3.455018266739
 N   -0.360235330086   -2.740198354779    3.451554077792
 C    0.967893838377   -2.958392247529    3.467121506455
 H    1.281702121347   -4.005070980019    3.470501077146
 N    1.980243281418   -2.050411290388    3.481092776730
 C    1.668026537511   -0.739590207139    3.476446372830
 N    2.675653492313    0.184908430166    3.434624535899
 H    3.607105029700   -0.145621678586    3.657082470032
 H    2.442915986286    1.144879185205    3.659434781339
 C    0.302525696637   -0.362896353272    3.467675285115
 N   -0.321003614554    0.876069347358    3.477553494133
 C   -1.620929101711    0.567989958997    3.469098640975
 H   -2.430982630498    1.294570760099    3.473146778838
 H   -2.766291675649   -1.249279723637    3.446460250498
CS   -0.300766546687    0.942061897584   -3.522106172194
