16

 N   -1.862788780854   -0.789957789644    3.553256481855
 C   -0.630663048587   -1.420248069652    3.554211442163
 N   -0.360522112461   -2.741133544620    3.550747253216
 C    0.967607056002   -2.959327437370    3.566314681879
 H    1.281415338972   -4.006006169860    3.569694252570
 N    1.979956499043   -2.051346480229    3.580285952154
 C    1.667739755136   -0.740525396980    3.575639548254
 N    2.675366709938    0.183973240325    3.533817711323
 H    3.606818247325   -0.146556868427    3.756275645456
 H    2.442629203911    1.143943995364    3.758627956763
 C    0.302238914262   -0.363831543113    3.566868460539
 N   -0.321290396929    0.875134157517    3.576746669557
 C   -1.621215884086    0.567054769156    3.568291816399
 H   -2.431269412873    1.293635570258    3.572339954262
 H   -2.766578458024   -1.250214913478    3.545653425922
CS   -0.300475127123    0.943012209177   -3.622903272951
