16

 N   -1.863218954417   -0.791360574406    3.702046244990
 C   -0.631093222150   -1.421650854414    3.703001205298
 N   -0.360952286024   -2.742536329382    3.699537016351
 C    0.967176882439   -2.960730222132    3.715104445014
 H    1.280985165409   -4.007408954622    3.718484015705
 N    1.979526325480   -2.052749264991    3.729075715289
 C    1.667309581573   -0.741928181742    3.724429311389
 N    2.674936536375    0.182570455563    3.682607474458
 H    3.606388073762   -0.147959653189    3.905065408591
 H    2.442199030348    1.142541210602    3.907417719898
 C    0.301808740699   -0.365234327875    3.715658223674
 N   -0.321720570492    0.873731372755    3.725536432692
 C   -1.621646057649    0.565651984394    3.717081579534
 H   -2.431699586436    1.292232785496    3.721129717397
 H   -2.767008631587   -1.251617698240    3.694443189057
CS   -0.300037997777    0.944437676568   -3.774098924086
