16

 N   -1.863362345604   -0.791828169326    3.751642832702
 C   -0.631236613337   -1.422118449334    3.752597793010
 N   -0.361095677211   -2.743003924302    3.749133604063
 C    0.967033491252   -2.961197817052    3.764701032726
 H    1.280841774222   -4.007876549542    3.768080603417
 N    1.979382934293   -2.053216859911    3.778672303001
 C    1.667166190386   -0.742395776662    3.774025899101
 N    2.674793145188    0.182102860643    3.732204062170
 H    3.606244682575   -0.148427248109    3.954661996303
 H    2.442055639161    1.142073615682    3.957014307610
 C    0.301665349512   -0.365701922795    3.765254811386
 N   -0.321863961679    0.873263777835    3.775133020404
 C   -1.621789448836    0.565184389474    3.766678167246
 H   -2.431842977623    1.291765190576    3.770726305109
 H   -2.767152022774   -1.252085293160    3.744039776769
CS   -0.299892287995    0.944912832365   -3.824497474465
