16

 N   -1.863935910354   -0.793698549009    3.950029183549
 C   -0.631810178087   -1.423988829017    3.950984143857
 N   -0.361669241961   -2.744874303985    3.947519954910
 C    0.966459926502   -2.963068196735    3.963087383573
 H    1.280268209472   -4.009746929225    3.966466954264
 N    1.978809369543   -2.055087239594    3.977058653848
 C    1.666592625636   -0.744266156345    3.972412249948
 N    2.674219580438    0.180232480960    3.930590413017
 H    3.605671117825   -0.150297627792    4.153048347150
 H    2.441482074411    1.140203235999    4.155400658457
 C    0.301091784762   -0.367572302478    3.963641162233
 N   -0.322437526429    0.871393398152    3.973519371251
 C   -1.622363013586    0.563314009791    3.965064518093
 H   -2.432416542373    1.289894810893    3.969112655956
 H   -2.767725587524   -1.253955672843    3.942426127616
CS   -0.299309448867    0.946813455553   -4.026091675979
