16

 N   -1.864079301542   -0.794166143929    3.999625771261
 C   -0.631953569275   -1.424456423937    4.000580731569
 N   -0.361812633149   -2.745341898905    3.997116542622
 C    0.966316535314   -2.963535791655    4.012683971285
 H    1.280124818284   -4.010214524145    4.016063541976
 N    1.978665978355   -2.055554834514    4.026655241560
 C    1.666449234448   -0.744733751265    4.022008837660
 N    2.674076189250    0.179764886040    3.980187000729
 H    3.605527726637   -0.150765222712    4.202644934862
 H    2.441338683223    1.139735641079    4.204997246169
 C    0.300948393574   -0.368039897398    4.013237749945
 N   -0.322580917617    0.870925803232    4.023115958963
 C   -1.622506404774    0.562846414871    4.014661105805
 H   -2.432559933561    1.289427215973    4.018709243668
 H   -2.767868978712   -1.254423267763    3.992022715328
CS   -0.299163739085    0.947288611350   -4.076490226358
