16

 N   -1.864366083917   -0.795101333770    4.098818946685
 C   -0.632240351650   -1.425391613778    4.099773906993
 N   -0.362099415524   -2.746277088746    4.096309718046
 C    0.966029752939   -2.964470981496    4.111877146709
 H    1.279838035909   -4.011149713986    4.115256717400
 N    1.978379195980   -2.056490024355    4.125848416984
 C    1.666162452073   -0.745668941106    4.121202013084
 N    2.673789406875    0.178829696199    4.079380176153
 H    3.605240944262   -0.151700412553    4.301838110286
 H    2.441051900848    1.138800451238    4.304190421593
 C    0.300661611199   -0.368975087239    4.112430925369
 N   -0.322867699992    0.869990613391    4.122309134387
 C   -1.622793187149    0.561911225030    4.113854281229
 H   -2.432846715936    1.288492026132    4.117902419092
 H   -2.768155761087   -1.255358457604    4.091215890752
CS   -0.298872319520    0.948238922944   -4.177287327115
