16

 N   -1.864509475104   -0.795568928691    4.148415534397
 C   -0.632383742837   -1.425859208699    4.149370494705
 N   -0.362242806711   -2.746744683667    4.145906305758
 C    0.965886361752   -2.964938576417    4.161473734421
 H    1.279694644722   -4.011617308907    4.164853305112
 N    1.978235804793   -2.056957619276    4.175445004696
 C    1.666019060886   -0.746136536027    4.170798600796
 N    2.673646015688    0.178362101278    4.128976763865
 H    3.605097553075   -0.152168007474    4.351434697998
 H    2.440908509661    1.138332856317    4.353787009305
 C    0.300518220012   -0.369442682160    4.162027513081
 N   -0.323011091179    0.869523018470    4.171905722099
 C   -1.622936578336    0.561443630109    4.163450868941
 H   -2.432990107123    1.288024431211    4.167499006804
 H   -2.768299152274   -1.255826052525    4.140812478464
CS   -0.298726609738    0.948714078741   -4.227685877493
