16

 N   -1.865369822229   -0.798374498214    4.445995060668
 C   -0.633244089962   -1.428664778222    4.446950020976
 N   -0.363103153836   -2.749550253190    4.443485832029
 C    0.965026014627   -2.967744145940    4.459053260692
 H    1.278834297597   -4.014422878430    4.462432831383
 N    1.977375457668   -2.059763188799    4.473024530967
 C    1.665158713761   -0.748942105550    4.468378127067
 N    2.672785668563    0.175556531755    4.426556290136
 H    3.604237205950   -0.154973576997    4.649014224269
 H    2.440048162536    1.135527286794    4.651366535576
 C    0.299657872887   -0.372248251683    4.459607039352
 N   -0.323871438304    0.866717448947    4.469485248370
 C   -1.623796925461    0.558638060586    4.461030395212
 H   -2.433850454248    1.285218861688    4.465078533075
 H   -2.769159499399   -1.258631622048    4.438392004735
CS   -0.297852351046    0.951565013523   -4.530077179764
