16

 N   -1.865513213416   -0.798842093135    4.495591648380
 C   -0.633387481149   -1.429132373143    4.496546608688
 N   -0.363246545023   -2.750017848111    4.493082419741
 C    0.964882623440   -2.968211740861    4.508649848404
 H    1.278690906410   -4.014890473351    4.512029419095
 N    1.977232066481   -2.060230783720    4.522621118679
 C    1.665015322574   -0.749409700471    4.517974714779
 N    2.672642277376    0.175088936834    4.476152877848
 H    3.604093814763   -0.155441171918    4.698610811981
 H    2.439904771349    1.135059691873    4.700963123288
 C    0.299514481700   -0.372715846604    4.509203627064
 N   -0.324014829491    0.866249854026    4.519081836082
 C   -1.623940316648    0.558170465665    4.510626982924
 H   -2.433993845435    1.284751266767    4.514675120787
 H   -2.769302890586   -1.259099216969    4.487988592447
CS   -0.297706641264    0.952040169320   -4.580475730143
