16

 N   -1.865656604604   -0.799309688055    4.545188236092
 C   -0.633530872337   -1.429599968063    4.546143196400
 N   -0.363389936211   -2.750485443031    4.542679007453
 C    0.964739232252   -2.968679335781    4.558246436116
 H    1.278547515222   -4.015358068271    4.561626006807
 N    1.977088675293   -2.060698378640    4.572217706391
 C    1.664871931386   -0.749877295391    4.567571302491
 N    2.672498886188    0.174621341914    4.525749465560
 H    3.603950423575   -0.155908766838    4.748207399693
 H    2.439761380161    1.134592096953    4.750559711000
 C    0.299371090512   -0.373183441524    4.558800214776
 N   -0.324158220679    0.865782259106    4.568678423794
 C   -1.624083707836    0.557702870745    4.560223570636
 H   -2.434137236623    1.284283671847    4.564271708499
 H   -2.769446281774   -1.259566811889    4.537585180159
CS   -0.297560931482    0.952515325116   -4.630874280521
