16

 N   -1.866516951729   -0.802115257579    4.842767762363
 C   -0.634391219462   -1.432405537587    4.843722722671
 N   -0.364250283336   -2.753291012555    4.840258533724
 C    0.963878885127   -2.971484905305    4.855825962387
 H    1.277687168097   -4.018163637795    4.859205533078
 N    1.976228328168   -2.063503948164    4.869797232662
 C    1.664011584261   -0.752682864915    4.865150828762
 N    2.671638539063    0.171815772390    4.823328991831
 H    3.603090076450   -0.158714336362    5.045786925964
 H    2.438901033036    1.131786527429    5.048139237271
 C    0.298510743387   -0.375989011048    4.856379741047
 N   -0.325018567804    0.862976689582    4.866257950065
 C   -1.624944054961    0.554897301221    4.857803096907
 H   -2.434997583748    1.281478102323    4.861851234770
 H   -2.770306628899   -1.262372381413    4.835164706430
CS   -0.296686672790    0.955366259898   -4.933265582793
