17

 C   -2.824733521409    1.340551456675    0.000000000000
 H   -3.785973521409    1.864011456675    0.000000000000
 H   -2.757963521409    0.708331456675    0.898350000000
 H   -2.757963521409    0.708331456675   -0.898350000000
 C   -1.715703521409    2.352631456675    0.000000000000
 O   -1.791383521409    3.553951456675    0.000000000000
 O   -0.443723521409    1.722401456675    0.000000000000
 H    0.188356478591    2.466151456675    0.000000000000
NA    0.122416478591   -0.475178543325    0.000000000000
 O    0.396838079339   -1.540398138077    0.000000000000
 H   -0.235245982391   -2.284147331359    0.000000000000
 C    1.668808868010   -2.170623593265    0.000000000000
 O    1.744495263805   -3.371941727438    0.000000000000
 C    2.777844725275   -1.158545788103    0.000000000000
 H    3.739087761309   -1.682003280721    0.000000000000
 H    2.711073523891   -0.526323492240   -0.898357878453
 H    2.711073523891   -0.526323492240    0.898357878453
