17

 C   -2.835202311085    1.381188053303    0.000000000000
 H   -3.796442311085    1.904648053303    0.000000000000
 H   -2.768432311085    0.748968053303    0.898350000000
 H   -2.768432311085    0.748968053303   -0.898350000000
 C   -1.726172311085    2.393268053303    0.000000000000
 O   -1.801852311085    3.594588053303    0.000000000000
 O   -0.454192311085    1.763038053303    0.000000000000
 H    0.177887688915    2.506788053303    0.000000000000
NA    0.111947688915   -0.434541946697    0.000000000000
 O    0.411316707914   -1.596599686426    0.000000000000
 H   -0.220767353816   -2.340348879708    0.000000000000
 C    1.683287496585   -2.226825141615    0.000000000000
 O    1.758973892380   -3.428143275787    0.000000000000
 C    2.792323353849   -1.214747336453    0.000000000000
 H    3.753566389883   -1.738204829070    0.000000000000
 H    2.725552152466   -0.582525040589   -0.898357878453
 H    2.725552152466   -0.582525040589    0.898357878453
