17

 C   -2.887546259462    1.584371036443    0.000000000000
 H   -3.848786259462    2.107831036443    0.000000000000
 H   -2.820776259462    0.952151036443    0.898350000000
 H   -2.820776259462    0.952151036443   -0.898350000000
 C   -1.778516259462    2.596451036443    0.000000000000
 O   -1.854196259462    3.797771036443    0.000000000000
 O   -0.506536259462    1.966221036443    0.000000000000
 H    0.125543740538    2.709971036443    0.000000000000
NA    0.059603740538   -0.231358963557    0.000000000000
 O    0.483709850786   -1.877607428174    0.000000000000
 H   -0.148374210944   -2.621356621455    0.000000000000
 C    1.755680639457   -2.507832883362    0.000000000000
 O    1.831367035252   -3.709151017534    0.000000000000
 C    2.864716496722   -1.495755078200    0.000000000000
 H    3.825959532755   -2.019212570817    0.000000000000
 H    2.797945295338   -0.863532782337   -0.898357878453
 H    2.797945295338   -0.863532782337    0.898357878453
