17

 C   -2.929421418164    1.746917422954    0.000000000000
 H   -3.890661418164    2.270377422954    0.000000000000
 H   -2.862651418164    1.114697422954    0.898350000000
 H   -2.862651418164    1.114697422954   -0.898350000000
 C   -1.820391418164    2.758997422954    0.000000000000
 O   -1.896071418164    3.960317422954    0.000000000000
 O   -0.548411418164    2.128767422954    0.000000000000
 H    0.083668581836    2.872517422954    0.000000000000
NA    0.017728581836   -0.068812577046    0.000000000000
 O    0.541624365083   -2.102413621571    0.000000000000
 H   -0.090459696646   -2.846162814853    0.000000000000
 C    1.813595153754   -2.732639076760    0.000000000000
 O    1.889281549550   -3.933957210932    0.000000000000
 C    2.922631011019   -1.720561271598    0.000000000000
 H    3.883874047053   -2.244018764215    0.000000000000
 H    2.855859809635   -1.088338975734   -0.898357878453
 H    2.855859809635   -1.088338975734    0.898357878453
