17

 C   -2.939890207839    1.787554019582    0.000000000000
 H   -3.901130207839    2.311014019582    0.000000000000
 H   -2.873120207839    1.155334019582    0.898350000000
 H   -2.873120207839    1.155334019582   -0.898350000000
 C   -1.830860207839    2.799634019582    0.000000000000
 O   -1.906540207839    4.000954019582    0.000000000000
 O   -0.558880207839    2.169404019582    0.000000000000
 H    0.073199792161    2.913154019582    0.000000000000
NA    0.007259792161   -0.028175980418    0.000000000000
 O    0.556102993658   -2.158615169921    0.000000000000
 H   -0.075981068072   -2.902364363202    0.000000000000
 C    1.828073782329   -2.788840625109    0.000000000000
 O    1.903760178124   -3.990158759282    0.000000000000
 C    2.937109639594   -1.776762819947    0.000000000000
 H    3.898352675627   -2.300220312565    0.000000000000
 H    2.870338438210   -1.144540524084   -0.898357878453
 H    2.870338438210   -1.144540524084    0.898357878453
