17

 C   -2.950358997514    1.828190616210    0.000000000000
 H   -3.911598997514    2.351650616210    0.000000000000
 H   -2.883588997514    1.195970616210    0.898350000000
 H   -2.883588997514    1.195970616210   -0.898350000000
 C   -1.841328997514    2.840270616210    0.000000000000
 O   -1.917008997514    4.041590616210    0.000000000000
 O   -0.569348997514    2.210040616210    0.000000000000
 H    0.062731002486    2.953790616210    0.000000000000
NA   -0.003208997514    0.012460616210    0.000000000000
 O    0.570581622232   -2.214816718270    0.000000000000
 H   -0.061502439498   -2.958565911552    0.000000000000
 C    1.842552410903   -2.845042173459    0.000000000000
 O    1.918238806698   -4.046360307631    0.000000000000
 C    2.951588268168   -1.832964368297    0.000000000000
 H    3.912831304201   -2.356421860914    0.000000000000
 H    2.884817066784   -1.200742072433   -0.898357878453
 H    2.884817066784   -1.200742072433    0.898357878453
