17

 C   -2.971296576865    1.909463809466    0.000000000000
 H   -3.932536576865    2.432923809466    0.000000000000
 H   -2.904526576865    1.277243809466    0.898350000000
 H   -2.904526576865    1.277243809466   -0.898350000000
 C   -1.862266576865    2.921543809466    0.000000000000
 O   -1.937946576865    4.122863809466    0.000000000000
 O   -0.590286576865    2.291313809466    0.000000000000
 H    0.041793423135    3.035063809466    0.000000000000
NA   -0.024146576865    0.093733809466    0.000000000000
 O    0.599538879381   -2.327219814969    0.000000000000
 H   -0.032545182349   -3.070969008251    0.000000000000
 C    1.871509668052   -2.957445270157    0.000000000000
 O    1.947196063847   -4.158763404330    0.000000000000
 C    2.980545525317   -1.945367464996    0.000000000000
 H    3.941788561350   -2.468824957613    0.000000000000
 H    2.913774323933   -1.313145169132   -0.898357878453
 H    2.913774323933   -1.313145169132    0.898357878453
