17

 C   -3.034109314918    2.153283389234    0.000000000000
 H   -3.995349314918    2.676743389234    0.000000000000
 H   -2.967339314918    1.521063389234    0.898350000000
 H   -2.967339314918    1.521063389234   -0.898350000000
 C   -1.925079314918    3.165363389234    0.000000000000
 O   -2.000759314918    4.366683389234    0.000000000000
 O   -0.653099314918    2.535133389234    0.000000000000
 H   -0.021019314918    3.278883389234    0.000000000000
NA   -0.086959314918    0.337553389234    0.000000000000
 O    0.686410650827   -2.664429105066    0.000000000000
 H    0.054326589098   -3.408178298347    0.000000000000
 C    1.958381439499   -3.294654560254    0.000000000000
 O    2.034067835294   -4.495972694427    0.000000000000
 C    3.067417296763   -2.282576755092    0.000000000000
 H    4.028660332797   -2.806034247710    0.000000000000
 H    3.000646095379   -1.650354459229   -0.898357878453
 H    3.000646095379   -1.650354459229    0.898357878453
