17

 C   -3.044578104593    2.193919985862    0.000000000000
 H   -4.005818104593    2.717379985862    0.000000000000
 H   -2.977808104593    1.561699985862    0.898350000000
 H   -2.977808104593    1.561699985862   -0.898350000000
 C   -1.935548104593    3.205999985862    0.000000000000
 O   -2.011228104593    4.407319985862    0.000000000000
 O   -0.663568104593    2.575769985862    0.000000000000
 H   -0.031488104593    3.319519985862    0.000000000000
NA   -0.097428104593    0.378189985862    0.000000000000
 O    0.700889279402   -2.720630653415    0.000000000000
 H    0.068805217672   -3.464379846697    0.000000000000
 C    1.972860068073   -3.350856108604    0.000000000000
 O    2.048546463868   -4.552174242776    0.000000000000
 C    3.081895925338   -2.338778303442    0.000000000000
 H    4.043138961371   -2.862235796059    0.000000000000
 H    3.015124723954   -1.706556007578   -0.898357878453
 H    3.015124723954   -1.706556007578    0.898357878453
