17

 C   -3.055046894269    2.234556582490    0.000000000000
 H   -4.016286894269    2.758016582490    0.000000000000
 H   -2.988276894269    1.602336582490    0.898350000000
 H   -2.988276894269    1.602336582490   -0.898350000000
 C   -1.946016894269    3.246636582490    0.000000000000
 O   -2.021696894269    4.447956582490    0.000000000000
 O   -0.674036894269    2.616406582490    0.000000000000
 H   -0.041956894269    3.360156582490    0.000000000000
NA   -0.107896894269    0.418826582490    0.000000000000
 O    0.715367907976   -2.776832201765    0.000000000000
 H    0.083283846246   -3.520581395046    0.000000000000
 C    1.987338696647   -3.407057656953    0.000000000000
 O    2.063025092443   -4.608375791125    0.000000000000
 C    3.096374553912   -2.394979851791    0.000000000000
 H    4.057617589946   -2.918437344408    0.000000000000
 H    3.029603352528   -1.762757555928   -0.898357878453
 H    3.029603352528   -1.762757555928    0.898357878453
