17

 C   -3.117859632322    2.478376162258    0.000000000000
 H   -4.079099632322    3.001836162258    0.000000000000
 H   -3.051089632322    1.846156162258    0.898350000000
 H   -3.051089632322    1.846156162258   -0.898350000000
 C   -2.008829632322    3.490456162258    0.000000000000
 O   -2.084509632322    4.691776162258    0.000000000000
 O   -0.736849632322    2.860226162258    0.000000000000
 H   -0.104769632322    3.603976162258    0.000000000000
NA   -0.170709632322    0.662646162258    0.000000000000
 O    0.802239679423   -3.114041491861    0.000000000000
 H    0.170155617693   -3.857790685143    0.000000000000
 C    2.074210468094   -3.744266947050    0.000000000000
 O    2.149896863889   -4.945585081222    0.000000000000
 C    3.183246325359   -2.732189141888    0.000000000000
 H    4.144489361392   -3.255646634505    0.000000000000
 H    3.116475123975   -2.099966846024   -0.898357878453
 H    3.116475123975   -2.099966846024    0.898357878453
