17

 C   -3.128328421997    2.519012758886    0.000000000000
 H   -4.089568421997    3.042472758886    0.000000000000
 H   -3.061558421997    1.886792758886    0.898350000000
 H   -3.061558421997    1.886792758886   -0.898350000000
 C   -2.019298421997    3.531092758886    0.000000000000
 O   -2.094978421997    4.732412758886    0.000000000000
 O   -0.747318421997    2.900862758886    0.000000000000
 H   -0.115238421997    3.644612758886    0.000000000000
NA   -0.181178421997    0.703282758886    0.000000000000
 O    0.816718307997   -3.170243040211    0.000000000000
 H    0.184634246267   -3.913992233493    0.000000000000
 C    2.088689096668   -3.800468495399    0.000000000000
 O    2.164375492463   -5.001786629572    0.000000000000
 C    3.197724953933   -2.788390690237    0.000000000000
 H    4.158967989966   -3.311848182855    0.000000000000
 H    3.130953752549   -2.156168394374   -0.898357878453
 H    3.130953752549   -2.156168394374    0.898357878453
