17

 C   -3.138797211672    2.559649355514    0.000000000000
 H   -4.100037211672    3.083109355514    0.000000000000
 H   -3.072027211672    1.927429355514    0.898350000000
 H   -3.072027211672    1.927429355514   -0.898350000000
 C   -2.029767211672    3.571729355514    0.000000000000
 O   -2.105447211672    4.773049355514    0.000000000000
 O   -0.757787211672    2.941499355514    0.000000000000
 H   -0.125707211672    3.685249355514    0.000000000000
NA   -0.191647211672    0.743919355514    0.000000000000
 O    0.831196936572   -3.226444588560    0.000000000000
 H    0.199112874842   -3.970193781842    0.000000000000
 C    2.103167725243   -3.856670043749    0.000000000000
 O    2.178854121038   -5.057988177921    0.000000000000
 C    3.212203582507   -2.844592238587    0.000000000000
 H    4.173446618541   -3.368049731204    0.000000000000
 H    3.145432381124   -2.212369942723   -0.898357878453
 H    3.145432381124   -2.212369942723    0.898357878453
