17

 C   -3.149266001348    2.600285952142    0.000000000000
 H   -4.110506001348    3.123745952142    0.000000000000
 H   -3.082496001348    1.968065952142    0.898350000000
 H   -3.082496001348    1.968065952142   -0.898350000000
 C   -2.040236001348    3.612365952142    0.000000000000
 O   -2.115916001348    4.813685952142    0.000000000000
 O   -0.768256001348    2.982135952142    0.000000000000
 H   -0.136176001348    3.725885952142    0.000000000000
NA   -0.202116001348    0.784555952142    0.000000000000
 O    0.845675565146   -3.282646136910    0.000000000000
 H    0.213591503416   -4.026395330191    0.000000000000
 C    2.117646353817   -3.912871592098    0.000000000000
 O    2.193332749612   -5.114189726271    0.000000000000
 C    3.226682211082   -2.900793786936    0.000000000000
 H    4.187925247115   -3.424251279553    0.000000000000
 H    3.159911009698   -2.268571491073   -0.898357878453
 H    3.159911009698   -2.268571491073    0.898357878453
