17

 C   -3.201609949725    2.803468935282    0.000000000000
 H   -4.162849949725    3.326928935282    0.000000000000
 H   -3.134839949725    2.171248935282    0.898350000000
 H   -3.134839949725    2.171248935282   -0.898350000000
 C   -2.092579949725    3.815548935282    0.000000000000
 O   -2.168259949725    5.016868935282    0.000000000000
 O   -0.820599949725    3.185318935282    0.000000000000
 H   -0.188519949725    3.929068935282    0.000000000000
NA   -0.254459949725    0.987738935282    0.000000000000
 O    0.918068708018   -3.563653878657    0.000000000000
 H    0.285984646288   -4.307403071939    0.000000000000
 C    2.190039496689   -4.193879333845    0.000000000000
 O    2.265725892484   -5.395197468018    0.000000000000
 C    3.299075353954   -3.181801528683    0.000000000000
 H    4.260318389987   -3.705259021301    0.000000000000
 H    3.232304152570   -2.549579232820   -0.898357878453
 H    3.232304152570   -2.549579232820    0.898357878453
