17

 C   -3.212078739401    2.844105531909    0.000000000000
 H   -4.173318739401    3.367565531909    0.000000000000
 H   -3.145308739401    2.211885531909    0.898350000000
 H   -3.145308739401    2.211885531909   -0.898350000000
 C   -2.103048739401    3.856185531909    0.000000000000
 O   -2.178728739401    5.057505531909    0.000000000000
 O   -0.831068739401    3.225955531909    0.000000000000
 H   -0.198988739401    3.969705531909    0.000000000000
NA   -0.264928739401    1.028375531909    0.000000000000
 O    0.932547336592   -3.619855427006    0.000000000000
 H    0.300463274863   -4.363604620288    0.000000000000
 C    2.204518125264   -4.250080882195    0.000000000000
 O    2.280204521059   -5.451399016367    0.000000000000
 C    3.313553982528   -3.238003077033    0.000000000000
 H    4.274797018562   -3.761460569650    0.000000000000
 H    3.246782781144   -2.605780781169   -0.898357878453
 H    3.246782781144   -2.605780781169    0.898357878453
