17

 C   -3.285360267129    3.128561708305    0.000000000000
 H   -4.246600267129    3.652021708305    0.000000000000
 H   -3.218590267129    2.496341708305    0.898350000000
 H   -3.218590267129    2.496341708305   -0.898350000000
 C   -2.176330267129    4.140641708305    0.000000000000
 O   -2.252010267129    5.341961708305    0.000000000000
 O   -0.904350267129    3.510411708305    0.000000000000
 H   -0.272270267129    4.254161708305    0.000000000000
NA   -0.338210267129    1.312831708305    0.000000000000
 O    1.033897736613   -4.013266265453    0.000000000000
 H    0.401813674884   -4.757015458734    0.000000000000
 C    2.305868525285   -4.643491720641    0.000000000000
 O    2.381554921080   -5.844809854813    0.000000000000
 C    3.414904382549   -3.631413915479    0.000000000000
 H    4.376147418583   -4.154871408096    0.000000000000
 H    3.348133181165   -2.999191619616   -0.898357878453
 H    3.348133181165   -2.999191619616    0.898357878453
