17

 C   -3.295829056804    3.169198304933    0.000000000000
 H   -4.257069056804    3.692658304933    0.000000000000
 H   -3.229059056804    2.536978304933    0.898350000000
 H   -3.229059056804    2.536978304933   -0.898350000000
 C   -2.186799056804    4.181278304933    0.000000000000
 O   -2.262479056804    5.382598304933    0.000000000000
 O   -0.914819056804    3.551048304933    0.000000000000
 H   -0.282739056804    4.294798304933    0.000000000000
NA   -0.348679056804    1.353468304933    0.000000000000
 O    1.048376365188   -4.069467813802    0.000000000000
 H    0.416292303458   -4.813217007084    0.000000000000
 C    2.320347153859   -4.699693268990    0.000000000000
 O    2.396033549654   -5.901011403163    0.000000000000
 C    3.429383011124   -3.687615463829    0.000000000000
 H    4.390626047157   -4.211072956446    0.000000000000
 H    3.362611809740   -3.055393167965   -0.898357878453
 H    3.362611809740   -3.055393167965    0.898357878453
