17

 C   -3.306297846479    3.209834901561    0.000000000000
 H   -4.267537846479    3.733294901561    0.000000000000
 H   -3.239527846479    2.577614901561    0.898350000000
 H   -3.239527846479    2.577614901561   -0.898350000000
 C   -2.197267846479    4.221914901561    0.000000000000
 O   -2.272947846479    5.423234901561    0.000000000000
 O   -0.925287846479    3.591684901561    0.000000000000
 H   -0.293207846479    4.335434901561    0.000000000000
NA   -0.359147846479    1.394104901561    0.000000000000
 O    1.062854993762   -4.125669362151    0.000000000000
 H    0.430770932032   -4.869418555433    0.000000000000
 C    2.334825782433   -4.755894817340    0.000000000000
 O    2.410512178228   -5.957212951512    0.000000000000
 C    3.443861639698   -3.743817012178    0.000000000000
 H    4.405104675732   -4.267274504795    0.000000000000
 H    3.377090438314   -3.111594716315   -0.898357878453
 H    3.377090438314   -3.111594716315    0.898357878453
