17

 C   -3.348173005181    3.372381288073    0.000000000000
 H   -4.309413005181    3.895841288073    0.000000000000
 H   -3.281403005181    2.740161288073    0.898350000000
 H   -3.281403005181    2.740161288073   -0.898350000000
 C   -2.239143005181    4.384461288073    0.000000000000
 O   -2.314823005181    5.585781288073    0.000000000000
 O   -0.967163005181    3.754231288073    0.000000000000
 H   -0.335083005181    4.497981288073    0.000000000000
NA   -0.401023005181    1.556651288073    0.000000000000
 O    1.120769508060   -4.350475555549    0.000000000000
 H    0.488685446330   -5.094224748831    0.000000000000
 C    2.392740296731   -4.980701010738    0.000000000000
 O    2.468426692526   -6.182019144910    0.000000000000
 C    3.501776153996   -3.968623205576    0.000000000000
 H    4.463019190029   -4.492080698193    0.000000000000
 H    3.435004952612   -3.336400909712   -0.898357878453
 H    3.435004952612   -3.336400909712    0.898357878453
