17

 C   -3.421454532909    3.656837464469    0.000000000000
 H   -4.382694532909    4.180297464469    0.000000000000
 H   -3.354684532909    3.024617464469    0.898350000000
 H   -3.354684532909    3.024617464469   -0.898350000000
 C   -2.312424532909    4.668917464469    0.000000000000
 O   -2.388104532909    5.870237464469    0.000000000000
 O   -1.040444532909    4.038687464469    0.000000000000
 H   -0.408364532909    4.782437464469    0.000000000000
NA   -0.474304532909    1.841107464469    0.000000000000
 O    1.222119908081   -4.743886393995    0.000000000000
 H    0.590035846351   -5.487635587277    0.000000000000
 C    2.494090696752   -5.374111849184    0.000000000000
 O    2.569777092547   -6.575429983356    0.000000000000
 C    3.603126554017   -4.362034044022    0.000000000000
 H    4.564369590050   -4.885491536639    0.000000000000
 H    3.536355352633   -3.729811748158   -0.898357878453
 H    3.536355352633   -3.729811748158    0.898357878453
