17

 C   -3.452860901936    3.778747254353    0.000000000000
 H   -4.414100901936    4.302207254353    0.000000000000
 H   -3.386090901936    3.146527254353    0.898350000000
 H   -3.386090901936    3.146527254353   -0.898350000000
 C   -2.343830901936    4.790827254353    0.000000000000
 O   -2.419510901936    5.992147254353    0.000000000000
 O   -1.071850901936    4.160597254353    0.000000000000
 H   -0.439770901936    4.904347254353    0.000000000000
NA   -0.505710901936    1.963017254353    0.000000000000
 O    1.265555793804   -4.912491039044    0.000000000000
 H    0.633471732074   -5.656240232325    0.000000000000
 C    2.537526582475   -5.542716494232    0.000000000000
 O    2.613212978270   -6.744034628405    0.000000000000
 C    3.646562439740   -4.530638689070    0.000000000000
 H    4.607805475773   -5.054096181687    0.000000000000
 H    3.579791238356   -3.898416393207   -0.898357878453
 H    3.579791238356   -3.898416393207    0.898357878453
