17

 C   -3.484267270962    3.900657044237    0.000000000000
 H   -4.445507270962    4.424117044237    0.000000000000
 H   -3.417497270962    3.268437044237    0.898350000000
 H   -3.417497270962    3.268437044237   -0.898350000000
 C   -2.375237270962    4.912737044237    0.000000000000
 O   -2.450917270962    6.114057044237    0.000000000000
 O   -1.103257270962    4.282507044237    0.000000000000
 H   -0.471177270962    5.026257044237    0.000000000000
NA   -0.537117270962    2.084927044237    0.000000000000
 O    1.308991679527   -5.081095684092    0.000000000000
 H    0.676907617797   -5.824844877374    0.000000000000
 C    2.580962468198   -5.711321139280    0.000000000000
 O    2.656648863993   -6.912639273453    0.000000000000
 C    3.689998325463   -4.699243334119    0.000000000000
 H    4.651241361497   -5.222700826736    0.000000000000
 H    3.623227124079   -4.067021038255   -0.898357878453
 H    3.623227124079   -4.067021038255    0.898357878453
