17

 C   -3.494736060637    3.941293640865    0.000000000000
 H   -4.455976060637    4.464753640865    0.000000000000
 H   -3.427966060637    3.309073640865    0.898350000000
 H   -3.427966060637    3.309073640865   -0.898350000000
 C   -2.385706060637    4.953373640865    0.000000000000
 O   -2.461386060637    6.154693640865    0.000000000000
 O   -1.113726060637    4.323143640865    0.000000000000
 H   -0.481646060637    5.066893640865    0.000000000000
NA   -0.547586060637    2.125563640865    0.000000000000
 O    1.323470308102   -5.137297232442    0.000000000000
 H    0.691386246372   -5.881046425723    0.000000000000
 C    2.595441096773   -5.767522687630    0.000000000000
 O    2.671127492568   -6.968840821802    0.000000000000
 C    3.704476954037   -4.755444882468    0.000000000000
 H    4.665719990071   -5.278902375085    0.000000000000
 H    3.637705752654   -4.123222586605   -0.898357878453
 H    3.637705752654   -4.123222586605    0.898357878453
