17

 C   -3.505204850313    3.981930237493    0.000000000000
 H   -4.466444850313    4.505390237493    0.000000000000
 H   -3.438434850313    3.349710237493    0.898350000000
 H   -3.438434850313    3.349710237493   -0.898350000000
 C   -2.396174850313    4.994010237493    0.000000000000
 O   -2.471854850313    6.195330237493    0.000000000000
 O   -1.124194850313    4.363780237493    0.000000000000
 H   -0.492114850313    5.107530237493    0.000000000000
NA   -0.558054850313    2.166200237493    0.000000000000
 O    1.337948936676   -5.193498780791    0.000000000000
 H    0.705864874946   -5.937247974073    0.000000000000
 C    2.609919725347   -5.823724235979    0.000000000000
 O    2.685606121142   -7.025042370152    0.000000000000
 C    3.718955582612   -4.811646430817    0.000000000000
 H    4.680198618645   -5.335103923435    0.000000000000
 H    3.652184381228   -4.179424134954   -0.898357878453
 H    3.652184381228   -4.179424134954    0.898357878453
