17

 C   -3.526142429664    4.063203430748    0.000000000000
 H   -4.487382429664    4.586663430748    0.000000000000
 H   -3.459372429664    3.430983430748    0.898350000000
 H   -3.459372429664    3.430983430748   -0.898350000000
 C   -2.417112429664    5.075283430748    0.000000000000
 O   -2.492792429664    6.276603430748    0.000000000000
 O   -1.145132429664    4.445053430748    0.000000000000
 H   -0.513052429664    5.188803430748    0.000000000000
NA   -0.578992429664    2.247473430748    0.000000000000
 O    1.366906193825   -5.305901877490    0.000000000000
 H    0.734822132095   -6.049651070772    0.000000000000
 C    2.638876982496   -5.936127332678    0.000000000000
 O    2.714563378291   -7.137445466851    0.000000000000
 C    3.747912839761   -4.924049527516    0.000000000000
 H    4.709155875794   -5.447507020134    0.000000000000
 H    3.681141638377   -4.291827231653   -0.898357878453
 H    3.681141638377   -4.291827231653    0.898357878453
