17

 C   -3.547080009015    4.144476624004    0.000000000000
 H   -4.508320009015    4.667936624004    0.000000000000
 H   -3.480310009015    3.512256624004    0.898350000000
 H   -3.480310009015    3.512256624004   -0.898350000000
 C   -2.438050009015    5.156556624004    0.000000000000
 O   -2.513730009015    6.357876624004    0.000000000000
 O   -1.166070009015    4.526326624004    0.000000000000
 H   -0.533990009015    5.270076624004    0.000000000000
NA   -0.599930009015    2.328746624004    0.000000000000
 O    1.395863450974   -5.418304974189    0.000000000000
 H    0.763779389244   -6.162054167470    0.000000000000
 C    2.667834239645   -6.048530429377    0.000000000000
 O    2.743520635440   -7.249848563550    0.000000000000
 C    3.776870096909   -5.036452624215    0.000000000000
 H    4.738113132943   -5.559910116833    0.000000000000
 H    3.710098895526   -4.404230328352   -0.898357878453
 H    3.710098895526   -4.404230328352    0.898357878453
