17

 C   -3.588955167716    4.307023010516    0.000000000000
 H   -4.550195167716    4.830483010516    0.000000000000
 H   -3.522185167716    3.674803010516    0.898350000000
 H   -3.522185167716    3.674803010516   -0.898350000000
 C   -2.479925167716    5.319103010516    0.000000000000
 O   -2.555605167716    6.520423010516    0.000000000000
 O   -1.207945167716    4.688873010516    0.000000000000
 H   -0.575865167716    5.432623010516    0.000000000000
NA   -0.641805167716    2.491293010516    0.000000000000
 O    1.453777965271   -5.643111167587    0.000000000000
 H    0.821693903541   -6.386860360868    0.000000000000
 C    2.725748753942   -6.273336622775    0.000000000000
 O    2.801435149738   -7.474654756947    0.000000000000
 C    3.834784611207   -5.261258817613    0.000000000000
 H    4.796027647241   -5.784716310230    0.000000000000
 H    3.768013409823   -4.629036521750   -0.898357878453
 H    3.768013409823   -4.629036521750    0.898357878453
