17

 C   -3.599423957392    4.347659607144    0.000000000000
 H   -4.560663957392    4.871119607144    0.000000000000
 H   -3.532653957392    3.715439607144    0.898350000000
 H   -3.532653957392    3.715439607144   -0.898350000000
 C   -2.490393957392    5.359739607144    0.000000000000
 O   -2.566073957392    6.561059607144    0.000000000000
 O   -1.218413957392    4.729509607144    0.000000000000
 H   -0.586333957392    5.473259607144    0.000000000000
NA   -0.652273957392    2.531929607144    0.000000000000
 O    1.468256593846   -5.699312715936    0.000000000000
 H    0.836172532116   -6.443061909218    0.000000000000
 C    2.740227382517   -6.329538171124    0.000000000000
 O    2.815913778312   -7.530856305297    0.000000000000
 C    3.849263239782   -5.317460365963    0.000000000000
 H    4.810506275815   -5.840917858580    0.000000000000
 H    3.782492038398   -4.685238070099   -0.898357878453
 H    3.782492038398   -4.685238070099    0.898357878453
