17

 C   -3.609892747067    4.388296203772    0.000000000000
 H   -4.571132747067    4.911756203772    0.000000000000
 H   -3.543122747067    3.756076203772    0.898350000000
 H   -3.543122747067    3.756076203772   -0.898350000000
 C   -2.500862747067    5.400376203772    0.000000000000
 O   -2.576542747067    6.601696203772    0.000000000000
 O   -1.228882747067    4.770146203772    0.000000000000
 H   -0.596802747067    5.513896203772    0.000000000000
NA   -0.662742747067    2.572566203772    0.000000000000
 O    1.482735222420   -5.755514264285    0.000000000000
 H    0.850651160690   -6.499263457567    0.000000000000
 C    2.754706011091   -6.385739719474    0.000000000000
 O    2.830392406886   -7.587057853646    0.000000000000
 C    3.863741868356   -5.373661914312    0.000000000000
 H    4.824984904389   -5.897119406929    0.000000000000
 H    3.796970666972   -4.741439618449   -0.898357878453
 H    3.796970666972   -4.741439618449    0.898357878453
