17

 C   -3.620361536743    4.428932800400    0.000000000000
 H   -4.581601536743    4.952392800400    0.000000000000
 H   -3.553591536743    3.796712800400    0.898350000000
 H   -3.553591536743    3.796712800400   -0.898350000000
 C   -2.511331536743    5.441012800400    0.000000000000
 O   -2.587011536743    6.642332800400    0.000000000000
 O   -1.239351536743    4.810782800400    0.000000000000
 H   -0.607271536743    5.554532800400    0.000000000000
NA   -0.673211536743    2.613202800400    0.000000000000
 O    1.497213850995   -5.811715812635    0.000000000000
 H    0.865129789265   -6.555465005917    0.000000000000
 C    2.769184639666   -6.441941267823    0.000000000000
 O    2.844871035461   -7.643259401996    0.000000000000
 C    3.878220496930   -5.429863462661    0.000000000000
 H    4.839463532964   -5.953320955279    0.000000000000
 H    3.811449295546   -4.797641166798   -0.898357878453
 H    3.811449295546   -4.797641166798    0.898357878453
