17

 C   -3.662236695444    4.591479186912    0.000000000000
 H   -4.623476695444    5.114939186912    0.000000000000
 H   -3.595466695444    3.959259186912    0.898350000000
 H   -3.595466695444    3.959259186912   -0.898350000000
 C   -2.553206695444    5.603559186912    0.000000000000
 O   -2.628886695444    6.804879186912    0.000000000000
 O   -1.281226695444    4.973329186912    0.000000000000
 H   -0.649146695444    5.717079186912    0.000000000000
NA   -0.715086695444    2.775749186912    0.000000000000
 O    1.555128365292   -6.036522006033    0.000000000000
 H    0.923044303562   -6.780271199314    0.000000000000
 C    2.827099153963   -6.666747461221    0.000000000000
 O    2.902785549758   -7.868065595393    0.000000000000
 C    3.936135011228   -5.654669656059    0.000000000000
 H    4.897378047262   -6.178127148676    0.000000000000
 H    3.869363809844   -5.022447360196   -0.898357878453
 H    3.869363809844   -5.022447360196    0.898357878453
