17

 C   -3.672705485120    4.632115783540    0.000000000000
 H   -4.633945485120    5.155575783540    0.000000000000
 H   -3.605935485120    3.999895783540    0.898350000000
 H   -3.605935485120    3.999895783540   -0.898350000000
 C   -2.563675485120    5.644195783540    0.000000000000
 O   -2.639355485120    6.845515783540    0.000000000000
 O   -1.291695485120    5.013965783540    0.000000000000
 H   -0.659615485120    5.757715783540    0.000000000000
NA   -0.725555485120    2.816385783540    0.000000000000
 O    1.569606993867   -6.092723554382    0.000000000000
 H    0.937522932137   -6.836472747664    0.000000000000
 C    2.841577782538   -6.722949009570    0.000000000000
 O    2.917264178333   -7.924267143743    0.000000000000
 C    3.950613639802   -5.710871204409    0.000000000000
 H    4.911856675836   -6.234328697026    0.000000000000
 H    3.883842438419   -5.078648908545   -0.898357878453
 H    3.883842438419   -5.078648908545    0.898357878453
