17

 C   -3.683174274795    4.672752380168    0.000000000000
 H   -4.644414274795    5.196212380168    0.000000000000
 H   -3.616404274795    4.040532380168    0.898350000000
 H   -3.616404274795    4.040532380168   -0.898350000000
 C   -2.574144274795    5.684832380168    0.000000000000
 O   -2.649824274795    6.886152380168    0.000000000000
 O   -1.302164274795    5.054602380168    0.000000000000
 H   -0.670084274795    5.798352380168    0.000000000000
NA   -0.736024274795    2.857022380168    0.000000000000
 O    1.584085622441   -6.148925102732    0.000000000000
 H    0.952001560711   -6.892674296013    0.000000000000
 C    2.856056411112   -6.779150557920    0.000000000000
 O    2.931742806907   -7.980468692092    0.000000000000
 C    3.965092268377   -5.767072752758    0.000000000000
 H    4.926335304410   -6.290530245375    0.000000000000
 H    3.898321066993   -5.134850456895   -0.898357878453
 H    3.898321066993   -5.134850456895    0.898357878453
