17

 C   -3.693643064471    4.713388976796    0.000000000000
 H   -4.654883064471    5.236848976796    0.000000000000
 H   -3.626873064471    4.081168976796    0.898350000000
 H   -3.626873064471    4.081168976796   -0.898350000000
 C   -2.584613064471    5.725468976796    0.000000000000
 O   -2.660293064471    6.926788976796    0.000000000000
 O   -1.312633064471    5.095238976796    0.000000000000
 H   -0.680553064471    5.838988976796    0.000000000000
NA   -0.746493064471    2.897658976796    0.000000000000
 O    1.598564251015   -6.205126651081    0.000000000000
 H    0.966480189286   -6.948875844363    0.000000000000
 C    2.870535039687   -6.835352106269    0.000000000000
 O    2.946221435482   -8.036670240442    0.000000000000
 C    3.979570896951   -5.823274301108    0.000000000000
 H    4.940813932985   -6.346731793725    0.000000000000
 H    3.912799695567   -5.191052005244   -0.898357878453
 H    3.912799695567   -5.191052005244    0.898357878453
