17

 C   -3.704111854146    4.754025573424    0.000000000000
 H   -4.665351854146    5.277485573424    0.000000000000
 H   -3.637341854146    4.121805573424    0.898350000000
 H   -3.637341854146    4.121805573424   -0.898350000000
 C   -2.595081854146    5.766105573424    0.000000000000
 O   -2.670761854146    6.967425573424    0.000000000000
 O   -1.323101854146    5.135875573424    0.000000000000
 H   -0.691021854146    5.879625573424    0.000000000000
NA   -0.756961854146    2.938295573424    0.000000000000
 O    1.613042879590   -6.261328199431    0.000000000000
 H    0.980958817860   -7.005077392712    0.000000000000
 C    2.885013668261   -6.891553654619    0.000000000000
 O    2.960700064056   -8.092871788791    0.000000000000
 C    3.994049525526   -5.879475849457    0.000000000000
 H    4.955292561559   -6.402933342074    0.000000000000
 H    3.927278324142   -5.247253553594   -0.898357878453
 H    3.927278324142   -5.247253553594    0.898357878453
