17

 C   -3.714580643822    4.794662170052    0.000000000000
 H   -4.675820643822    5.318122170052    0.000000000000
 H   -3.647810643822    4.162442170052    0.898350000000
 H   -3.647810643822    4.162442170052   -0.898350000000
 C   -2.605550643822    5.806742170052    0.000000000000
 O   -2.681230643822    7.008062170052    0.000000000000
 O   -1.333570643822    5.176512170052    0.000000000000
 H   -0.701490643822    5.920262170052    0.000000000000
NA   -0.767430643822    2.978932170052    0.000000000000
 O    1.627521508164   -6.317529747780    0.000000000000
 H    0.995437446434   -7.061278941062    0.000000000000
 C    2.899492296835   -6.947755202968    0.000000000000
 O    2.975178692630   -8.149073337141    0.000000000000
 C    4.008528154100   -5.935677397806    0.000000000000
 H    4.969771190134   -6.459134890424    0.000000000000
 H    3.941756952716   -5.303455101943   -0.898357878453
 H    3.941756952716   -5.303455101943    0.898357878453
