13

 C    1.122682538749    1.583758675722    0.000000000000
 H    1.157202538749    2.684610675722    0.000000000000
 H    1.647265538749    1.214613675722    0.893619000000
 H    1.647265538749    1.214613675722   -0.893619000000
 C   -0.320097461251    1.106707675722    0.000000000000
 H   -0.859271461251    1.477860675722   -0.894766000000
 H   -0.859271461251    1.477860675722    0.894766000000
 O   -0.319532461251   -0.321799324278    0.000000000000
 C   -1.649119461251   -0.832206324278    0.000000000000
 H   -2.202502461251   -0.501427324278   -0.899133000000
 H   -2.202502461251   -0.501427324278    0.899133000000
 H   -1.576036461251   -1.927681324278    0.000000000000
NA    0.806557562184   -0.971353986427    0.000000000000
