13

 C    1.098703104260    1.597590565841    0.000000000000
 H    1.133223104260    2.698442565841    0.000000000000
 H    1.623286104260    1.228445565841    0.893619000000
 H    1.623286104260    1.228445565841   -0.893619000000
 C   -0.344076895740    1.120539565841    0.000000000000
 H   -0.883250895740    1.491692565841   -0.894766000000
 H   -0.883250895740    1.491692565841    0.894766000000
 O   -0.343511895740   -0.307967434159    0.000000000000
 C   -1.673098895740   -0.818374434159    0.000000000000
 H   -2.226481895740   -0.487595434159   -0.899133000000
 H   -2.226481895740   -0.487595434159    0.899133000000
 H   -1.600015895740   -1.913849434159    0.000000000000
NA    0.869200437190   -1.007487839551    0.000000000000
