13

 C    1.002785366306    1.652918126316    0.000000000000
 H    1.037305366306    2.753770126316    0.000000000000
 H    1.527368366306    1.283773126316    0.893619000000
 H    1.527368366306    1.283773126316   -0.893619000000
 C   -0.439994633694    1.175867126316    0.000000000000
 H   -0.979168633694    1.547020126316   -0.894766000000
 H   -0.979168633694    1.547020126316    0.894766000000
 O   -0.439429633694   -0.252639873684    0.000000000000
 C   -1.769016633694   -0.763046873684    0.000000000000
 H   -2.322399633694   -0.432267873684   -0.899133000000
 H   -2.322399633694   -0.432267873684    0.899133000000
 H   -1.695933633694   -1.858521873684    0.000000000000
NA    1.119771937215   -1.152023252046    0.000000000000
