13

 C    0.930847062840    1.694413796672    0.000000000000
 H    0.965367062840    2.795265796672    0.000000000000
 H    1.455430062840    1.325268796672    0.893619000000
 H    1.455430062840    1.325268796672   -0.893619000000
 C   -0.511932937160    1.217362796672    0.000000000000
 H   -1.051106937160    1.588515796672   -0.894766000000
 H   -1.051106937160    1.588515796672    0.894766000000
 O   -0.511367937160   -0.211144203328    0.000000000000
 C   -1.840954937160   -0.721551203328    0.000000000000
 H   -2.394337937160   -0.390772203328   -0.899133000000
 H   -2.394337937160   -0.390772203328    0.899133000000
 H   -1.767871937160   -1.817026203328    0.000000000000
NA    1.307700562234   -1.260424811417    0.000000000000
