13

 C    0.834929324885    1.749741357146    0.000000000000
 H    0.869449324885    2.850593357146    0.000000000000
 H    1.359512324885    1.380596357146    0.893619000000
 H    1.359512324885    1.380596357146   -0.893619000000
 C   -0.607850675115    1.272690357146    0.000000000000
 H   -1.147024675115    1.643843357146   -0.894766000000
 H   -1.147024675115    1.643843357146    0.894766000000
 O   -0.607285675115   -0.155816642854    0.000000000000
 C   -1.936872675115   -0.666223642854    0.000000000000
 H   -2.490255675115   -0.335444642854   -0.899133000000
 H   -2.490255675115   -0.335444642854    0.899133000000
 H   -1.863789675115   -1.761698642854    0.000000000000
NA    1.558272062259   -1.404960223911    0.000000000000
