13

 C    0.810949890396    1.763573247265    0.000000000000
 H    0.845469890396    2.864425247265    0.000000000000
 H    1.335532890396    1.394428247265    0.893619000000
 H    1.335532890396    1.394428247265   -0.893619000000
 C   -0.631830109604    1.286522247265    0.000000000000
 H   -1.171004109604    1.657675247265   -0.894766000000
 H   -1.171004109604    1.657675247265    0.894766000000
 O   -0.631265109604   -0.141984752735    0.000000000000
 C   -1.960852109604   -0.652391752735    0.000000000000
 H   -2.514235109604   -0.321612752735   -0.899133000000
 H   -2.514235109604   -0.321612752735    0.899133000000
 H   -1.887769109604   -1.747866752735    0.000000000000
NA    1.620914937266   -1.441094077035    0.000000000000
