13

 C    0.786970455907    1.777405137383    0.000000000000
 H    0.821490455907    2.878257137383    0.000000000000
 H    1.311553455907    1.408260137383    0.893619000000
 H    1.311553455907    1.408260137383   -0.893619000000
 C   -0.655809544093    1.300354137383    0.000000000000
 H   -1.194983544093    1.671507137383   -0.894766000000
 H   -1.194983544093    1.671507137383    0.894766000000
 O   -0.655244544093   -0.128152862617    0.000000000000
 C   -1.984831544093   -0.638559862617    0.000000000000
 H   -2.538214544093   -0.307780862617   -0.899133000000
 H   -2.538214544093   -0.307780862617    0.899133000000
 H   -1.911748544093   -1.734034862617    0.000000000000
NA    1.683557812272   -1.477227930159    0.000000000000
