13

 C    0.762991021419    1.791237027502    0.000000000000
 H    0.797511021419    2.892089027502    0.000000000000
 H    1.287574021419    1.422092027502    0.893619000000
 H    1.287574021419    1.422092027502   -0.893619000000
 C   -0.679788978581    1.314186027502    0.000000000000
 H   -1.218962978581    1.685339027502   -0.894766000000
 H   -1.218962978581    1.685339027502    0.894766000000
 O   -0.679223978581   -0.114320972498    0.000000000000
 C   -2.008810978581   -0.624727972498    0.000000000000
 H   -2.562193978581   -0.293948972498   -0.899133000000
 H   -2.562193978581   -0.293948972498    0.899133000000
 H   -1.935727978581   -1.720202972498    0.000000000000
NA    1.746200687278   -1.513361783282    0.000000000000
