13

 C    0.739011586930    1.805068917621    0.000000000000
 H    0.773531586930    2.905920917621    0.000000000000
 H    1.263594586930    1.435923917621    0.893619000000
 H    1.263594586930    1.435923917621   -0.893619000000
 C   -0.703768413070    1.328017917621    0.000000000000
 H   -1.242942413070    1.699170917621   -0.894766000000
 H   -1.242942413070    1.699170917621    0.894766000000
 O   -0.703203413070   -0.100489082379    0.000000000000
 C   -2.032790413070   -0.610896082379    0.000000000000
 H   -2.586173413070   -0.280117082379   -0.899133000000
 H   -2.586173413070   -0.280117082379    0.899133000000
 H   -1.959707413070   -1.706371082379    0.000000000000
NA    1.808843562285   -1.549495636406    0.000000000000
