13

 C    0.691052717953    1.832732697858    0.000000000000
 H    0.725572717953    2.933584697858    0.000000000000
 H    1.215635717953    1.463587697858    0.893619000000
 H    1.215635717953    1.463587697858   -0.893619000000
 C   -0.751727282047    1.355681697858    0.000000000000
 H   -1.290901282047    1.726834697858   -0.894766000000
 H   -1.290901282047    1.726834697858    0.894766000000
 O   -0.751162282047   -0.072825302142    0.000000000000
 C   -2.080749282047   -0.583232302142    0.000000000000
 H   -2.634132282047   -0.252453302142   -0.899133000000
 H   -2.634132282047   -0.252453302142    0.899133000000
 H   -2.007666282047   -1.678707302142    0.000000000000
NA    1.934129312297   -1.621763342653    0.000000000000
