13

 C    0.667073283464    1.846564587977    0.000000000000
 H    0.701593283464    2.947416587977    0.000000000000
 H    1.191656283464    1.477419587977    0.893619000000
 H    1.191656283464    1.477419587977   -0.893619000000
 C   -0.775706716536    1.369513587977    0.000000000000
 H   -1.314880716536    1.740666587977   -0.894766000000
 H   -1.314880716536    1.740666587977    0.894766000000
 O   -0.775141716536   -0.058993412023    0.000000000000
 C   -2.104728716536   -0.569400412023    0.000000000000
 H   -2.658111716536   -0.238621412023   -0.899133000000
 H   -2.658111716536   -0.238621412023    0.899133000000
 H   -2.031645716536   -1.664875412023    0.000000000000
NA    1.996772187304   -1.657897195777    0.000000000000
