13

 C    0.451258373066    1.971051599044    0.000000000000
 H    0.485778373066    3.071903599044    0.000000000000
 H    0.975841373066    1.601906599044    0.893619000000
 H    0.975841373066    1.601906599044   -0.893619000000
 C   -0.991521626934    1.494000599044    0.000000000000
 H   -1.530695626934    1.865153599044   -0.894766000000
 H   -1.530695626934    1.865153599044    0.894766000000
 O   -0.990956626934    0.065493599044    0.000000000000
 C   -2.320543626934   -0.444913400956    0.000000000000
 H   -2.873926626934   -0.114134400956   -0.899133000000
 H   -2.873926626934   -0.114134400956    0.899133000000
 H   -2.247460626934   -1.540388400956    0.000000000000
NA    2.560558062360   -1.983101873890    0.000000000000
