13

 C    0.331361200622    2.040211049637    0.000000000000
 H    0.365881200622    3.141063049637    0.000000000000
 H    0.855944200622    1.671066049637    0.893619000000
 H    0.855944200622    1.671066049637   -0.893619000000
 C   -1.111418799378    1.563160049637    0.000000000000
 H   -1.650592799378    1.934313049637   -0.894766000000
 H   -1.650592799378    1.934313049637    0.894766000000
 O   -1.110853799378    0.134653049637    0.000000000000
 C   -2.440440799378   -0.375753950363    0.000000000000
 H   -2.993823799378   -0.044974950363   -0.899133000000
 H   -2.993823799378   -0.044974950363    0.899133000000
 H   -2.367357799378   -1.471228950363    0.000000000000
NA    2.873772437392   -2.163771139508    0.000000000000
