13

 C    0.307381766134    2.054042939756    0.000000000000
 H    0.341901766134    3.154894939756    0.000000000000
 H    0.831964766134    1.684897939756    0.893619000000
 H    0.831964766134    1.684897939756   -0.893619000000
 C   -1.135398233866    1.576991939756    0.000000000000
 H   -1.674572233866    1.948144939756   -0.894766000000
 H   -1.674572233866    1.948144939756    0.894766000000
 O   -1.134833233866    0.148484939756    0.000000000000
 C   -2.464420233866   -0.361922060244    0.000000000000
 H   -3.017803233866   -0.031143060244   -0.899133000000
 H   -3.017803233866   -0.031143060244    0.899133000000
 H   -2.391337233866   -1.457397060244    0.000000000000
NA    2.936415312398   -2.199904992632    0.000000000000
