13

 C    0.235443462668    2.095538610112    0.000000000000
 H    0.269963462668    3.196390610112    0.000000000000
 H    0.760026462668    1.726393610112    0.893619000000
 H    0.760026462668    1.726393610112   -0.893619000000
 C   -1.207336537332    1.618487610112    0.000000000000
 H   -1.746510537332    1.989640610112   -0.894766000000
 H   -1.746510537332    1.989640610112    0.894766000000
 O   -1.206771537332    0.189980610112    0.000000000000
 C   -2.536358537332   -0.320426389888    0.000000000000
 H   -3.089741537332    0.010352610112   -0.899133000000
 H   -3.089741537332    0.010352610112    0.899133000000
 H   -2.463275537332   -1.415901389888    0.000000000000
NA    3.124343937417   -2.308306552003    0.000000000000
