13

 C    0.163505159202    2.137034280468    0.000000000000
 H    0.198025159202    3.237886280468    0.000000000000
 H    0.688088159202    1.767889280468    0.893619000000
 H    0.688088159202    1.767889280468   -0.893619000000
 C   -1.279274840798    1.659983280468    0.000000000000
 H   -1.818448840798    2.031136280468   -0.894766000000
 H   -1.818448840798    2.031136280468    0.894766000000
 O   -1.278709840798    0.231476280468    0.000000000000
 C   -2.608296840798   -0.278930719532    0.000000000000
 H   -3.161679840798    0.051848280468   -0.899133000000
 H   -3.161679840798    0.051848280468    0.899133000000
 H   -2.535213840798   -1.374405719532    0.000000000000
NA    3.312272562436   -2.416708111374    0.000000000000
