13

 C    0.067587421247    2.192361840942    0.000000000000
 H    0.102107421247    3.293213840942    0.000000000000
 H    0.592170421247    1.823216840942    0.893619000000
 H    0.592170421247    1.823216840942   -0.893619000000
 C   -1.375192578753    1.715310840942    0.000000000000
 H   -1.914366578753    2.086463840942   -0.894766000000
 H   -1.914366578753    2.086463840942    0.894766000000
 O   -1.374627578753    0.286803840942    0.000000000000
 C   -2.704214578753   -0.223603159058    0.000000000000
 H   -3.257597578753    0.107175840942   -0.899133000000
 H   -3.257597578753    0.107175840942    0.899133000000
 H   -2.631131578753   -1.319078159058    0.000000000000
NA    3.562844062461   -2.561243523868    0.000000000000
