13

 C   -0.004350882219    2.233857511298    0.000000000000
 H    0.030169117781    3.334709511298    0.000000000000
 H    0.520232117781    1.864712511298    0.893619000000
 H    0.520232117781    1.864712511298   -0.893619000000
 C   -1.447130882219    1.756806511298    0.000000000000
 H   -1.986304882219    2.127959511298   -0.894766000000
 H   -1.986304882219    2.127959511298    0.894766000000
 O   -1.446565882219    0.328299511298    0.000000000000
 C   -2.776152882219   -0.182107488702    0.000000000000
 H   -3.329535882219    0.148671511298   -0.899133000000
 H   -3.329535882219    0.148671511298    0.899133000000
 H   -2.703069882219   -1.277582488702    0.000000000000
NA    3.750772687480   -2.669645083239    0.000000000000
