13

 C   -0.028330316708    2.247689401417    0.000000000000
 H    0.006189683292    3.348541401417    0.000000000000
 H    0.496252683292    1.878544401417    0.893619000000
 H    0.496252683292    1.878544401417   -0.893619000000
 C   -1.471110316708    1.770638401417    0.000000000000
 H   -2.010284316708    2.141791401417   -0.894766000000
 H   -2.010284316708    2.141791401417    0.894766000000
 O   -1.470545316708    0.342131401417    0.000000000000
 C   -2.800132316708   -0.168275598583    0.000000000000
 H   -3.353515316708    0.162503401417   -0.899133000000
 H   -3.353515316708    0.162503401417    0.899133000000
 H   -2.727049316708   -1.263750598583    0.000000000000
NA    3.813415562486   -2.705778936363    0.000000000000
