13

 C   -0.076289185685    2.275353181654    0.000000000000
 H   -0.041769185685    3.376205181654    0.000000000000
 H    0.448293814315    1.906208181654    0.893619000000
 H    0.448293814315    1.906208181654   -0.893619000000
 C   -1.519069185685    1.798302181654    0.000000000000
 H   -2.058243185685    2.169455181654   -0.894766000000
 H   -2.058243185685    2.169455181654    0.894766000000
 O   -1.518504185685    0.369795181654    0.000000000000
 C   -2.848091185685   -0.140611818346    0.000000000000
 H   -3.401474185685    0.190167181654   -0.899133000000
 H   -3.401474185685    0.190167181654    0.899133000000
 H   -2.775008185685   -1.236086818346    0.000000000000
NA    3.938701312499   -2.778046642610    0.000000000000
