13

 C   -0.100268620174    2.289185071773    0.000000000000
 H   -0.065748620174    3.390037071773    0.000000000000
 H    0.424314379826    1.920040071773    0.893619000000
 H    0.424314379826    1.920040071773   -0.893619000000
 C   -1.543048620174    1.812134071773    0.000000000000
 H   -2.082222620174    2.183287071773   -0.894766000000
 H   -2.082222620174    2.183287071773    0.894766000000
 O   -1.542483620174    0.383627071773    0.000000000000
 C   -2.872070620174   -0.126779928227    0.000000000000
 H   -3.425453620174    0.203999071773   -0.899133000000
 H   -3.425453620174    0.203999071773    0.899133000000
 H   -2.798987620174   -1.222254928227    0.000000000000
NA    4.001344187505   -2.814180495734    0.000000000000
