13

 C   -0.196186358129    2.344512632247    0.000000000000
 H   -0.161666358129    3.445364632247    0.000000000000
 H    0.328396641871    1.975367632247    0.893619000000
 H    0.328396641871    1.975367632247   -0.893619000000
 C   -1.638966358129    1.867461632247    0.000000000000
 H   -2.178140358129    2.238614632247   -0.894766000000
 H   -2.178140358129    2.238614632247    0.894766000000
 O   -1.638401358129    0.438954632247    0.000000000000
 C   -2.967988358129   -0.071452367753    0.000000000000
 H   -3.521371358129    0.259326632247   -0.899133000000
 H   -3.521371358129    0.259326632247    0.899133000000
 H   -2.894905358129   -1.166927367753    0.000000000000
NA    4.251915687530   -2.958715908229    0.000000000000
