13

 C   -0.220165792617    2.358344522366    0.000000000000
 H   -0.185645792617    3.459196522366    0.000000000000
 H    0.304417207383    1.989199522366    0.893619000000
 H    0.304417207383    1.989199522366   -0.893619000000
 C   -1.662945792617    1.881293522366    0.000000000000
 H   -2.202119792617    2.252446522366   -0.894766000000
 H   -2.202119792617    2.252446522366    0.894766000000
 O   -1.662380792617    0.452786522366    0.000000000000
 C   -2.991967792617   -0.057620477634    0.000000000000
 H   -3.545350792617    0.273158522366   -0.899133000000
 H   -3.545350792617    0.273158522366    0.899133000000
 H   -2.918884792617   -1.153095477634    0.000000000000
NA    4.314558562537   -2.994849761352    0.000000000000
