13

 C   -0.244145227106    2.372176412485    0.000000000000
 H   -0.209625227106    3.473028412485    0.000000000000
 H    0.280437772894    2.003031412485    0.893619000000
 H    0.280437772894    2.003031412485   -0.893619000000
 C   -1.686925227106    1.895125412485    0.000000000000
 H   -2.226099227106    2.266278412485   -0.894766000000
 H   -2.226099227106    2.266278412485    0.894766000000
 O   -1.686360227106    0.466618412485    0.000000000000
 C   -3.015947227106   -0.043788587515    0.000000000000
 H   -3.569330227106    0.286990412485   -0.899133000000
 H   -3.569330227106    0.286990412485    0.899133000000
 H   -2.942864227106   -1.139263587515    0.000000000000
NA    4.377201437543   -3.030983614476    0.000000000000
