13

 C   -0.268124661595    2.386008302603    0.000000000000
 H   -0.233604661595    3.486860302603    0.000000000000
 H    0.256458338405    2.016863302603    0.893619000000
 H    0.256458338405    2.016863302603   -0.893619000000
 C   -1.710904661595    1.908957302603    0.000000000000
 H   -2.250078661595    2.280110302603   -0.894766000000
 H   -2.250078661595    2.280110302603    0.894766000000
 O   -1.710339661595    0.480450302603    0.000000000000
 C   -3.039926661595   -0.029956697397    0.000000000000
 H   -3.593309661595    0.300822302603   -0.899133000000
 H   -3.593309661595    0.300822302603    0.899133000000
 H   -2.966843661595   -1.125431697397    0.000000000000
NA    4.439844312549   -3.067117467600    0.000000000000
