13

 C   -0.340062965061    2.427503972959    0.000000000000
 H   -0.305542965061    3.528355972959    0.000000000000
 H    0.184520034939    2.058358972959    0.893619000000
 H    0.184520034939    2.058358972959   -0.893619000000
 C   -1.782842965061    1.950452972959    0.000000000000
 H   -2.322016965061    2.321605972959   -0.894766000000
 H   -2.322016965061    2.321605972959    0.894766000000
 O   -1.782277965061    0.521945972959    0.000000000000
 C   -3.111864965061    0.011538972959    0.000000000000
 H   -3.665247965061    0.342317972959   -0.899133000000
 H   -3.665247965061    0.342317972959    0.899133000000
 H   -3.038781965061   -1.083936027041    0.000000000000
NA    4.627772937568   -3.175519026971    0.000000000000
