13

 C   -0.435980703015    2.482831533434    0.000000000000
 H   -0.401460703015    3.583683533434    0.000000000000
 H    0.088602296985    2.113686533434    0.893619000000
 H    0.088602296985    2.113686533434   -0.893619000000
 C   -1.878760703015    2.005780533434    0.000000000000
 H   -2.417934703015    2.376933533434   -0.894766000000
 H   -2.417934703015    2.376933533434    0.894766000000
 O   -1.878195703015    0.577273533434    0.000000000000
 C   -3.207782703015    0.066866533434    0.000000000000
 H   -3.761165703015    0.397645533434   -0.899133000000
 H   -3.761165703015    0.397645533434    0.899133000000
 H   -3.134699703015   -1.028608466566    0.000000000000
NA    4.878344437593   -3.320054439465    0.000000000000
