13

 C   -0.459960137504    2.496663423552    0.000000000000
 H   -0.425440137504    3.597515423552    0.000000000000
 H    0.064622862496    2.127518423552    0.893619000000
 H    0.064622862496    2.127518423552   -0.893619000000
 C   -1.902740137504    2.019612423552    0.000000000000
 H   -2.441914137504    2.390765423552   -0.894766000000
 H   -2.441914137504    2.390765423552    0.894766000000
 O   -1.902175137504    0.591105423552    0.000000000000
 C   -3.231762137504    0.080698423552    0.000000000000
 H   -3.785145137504    0.411477423552   -0.899133000000
 H   -3.785145137504    0.411477423552    0.899133000000
 H   -3.158679137504   -1.014776576448    0.000000000000
NA    4.940987312600   -3.356188292589    0.000000000000
