13

 C   -0.507919006481    2.524327203790    0.000000000000
 H   -0.473399006481    3.625179203790    0.000000000000
 H    0.016663993519    2.155182203790    0.893619000000
 H    0.016663993519    2.155182203790   -0.893619000000
 C   -1.950699006481    2.047276203790    0.000000000000
 H   -2.489873006481    2.418429203790   -0.894766000000
 H   -2.489873006481    2.418429203790    0.894766000000
 O   -1.950134006481    0.618769203790    0.000000000000
 C   -3.279721006481    0.108362203790    0.000000000000
 H   -3.833104006481    0.439141203790   -0.899133000000
 H   -3.833104006481    0.439141203790    0.899133000000
 H   -3.206638006481   -0.987112796210    0.000000000000
NA    5.066273062612   -3.428455998836    0.000000000000
