13

 C   -0.723733916880    2.648814214857    0.000000000000
 H   -0.689213916880    3.749666214857    0.000000000000
 H   -0.199150916880    2.279669214857    0.893619000000
 H   -0.199150916880    2.279669214857   -0.893619000000
 C   -2.166513916880    2.171763214857    0.000000000000
 H   -2.705687916880    2.542916214857   -0.894766000000
 H   -2.705687916880    2.542916214857    0.894766000000
 O   -2.165948916880    0.743256214857    0.000000000000
 C   -3.495535916880    0.232849214857    0.000000000000
 H   -4.048918916880    0.563628214857   -0.899133000000
 H   -4.048918916880    0.563628214857    0.899133000000
 H   -3.422452916880   -0.862625785143    0.000000000000
NA    5.630058937669   -3.753660676949    0.000000000000
