13

 C   -0.819651654834    2.704141775332    0.000000000000
 H   -0.785131654834    3.804993775332    0.000000000000
 H   -0.295068654834    2.334996775332    0.893619000000
 H   -0.295068654834    2.334996775332   -0.893619000000
 C   -2.262431654834    2.227090775332    0.000000000000
 H   -2.801605654834    2.598243775332   -0.894766000000
 H   -2.801605654834    2.598243775332    0.894766000000
 O   -2.261866654834    0.798583775332    0.000000000000
 C   -3.591453654834    0.288176775332    0.000000000000
 H   -4.144836654834    0.618955775332   -0.899133000000
 H   -4.144836654834    0.618955775332    0.899133000000
 H   -3.518370654834   -0.807298224668    0.000000000000
NA    5.880630437694   -3.898196089444    0.000000000000
