34

 N    0.313340291736   -4.457366093897    0.198898217107
 C    1.337640291736   -3.543996093897    0.140308217107
 N    2.663250291736   -3.794166093897    0.144648217107
 C    3.393760291736   -2.691136093897    0.078318217107
 N    2.840420291736   -1.411616093897    0.014418217107
 H    3.465020291736   -0.609406093897   -0.038621782893
 N    4.742300291736   -2.778616093897    0.067498217107
 H    5.353850291736   -1.975956093897    0.030028217107
 H    5.153400291736   -3.702746093897    0.118348217107
 C    1.480690291736   -1.122126093897    0.014628217107
 O    1.055280291736    0.070803906103   -0.036091782893
 C    0.692450291736   -2.299446093897    0.078388217107
 N   -0.686109708264   -2.441206093897    0.097008217107
 C   -0.871499708264   -3.762176093897    0.170588217107
 H   -1.836639708264   -4.260766093897    0.204798217107
 H    0.419580291736   -5.467766093897    0.255138217107
NA   -1.470599708264   -0.242706093897   -0.052551782893
NA    0.850760291736    2.301013906103   -0.017611782893
 C   -0.598114181090    1.986169900447   -0.067705890589
 N    0.780451877650    2.127923368496   -0.086325707613
 C    0.965837432745    3.448890589000   -0.159902075536
 H    1.930981042959    3.947480236479   -0.194119537314
 N   -0.219005288064    4.144091660782   -0.188215281594
 H   -0.325245205686    5.154485650060   -0.244464874800
 C   -1.243299763230    3.230719905050   -0.129629951735
 C   -1.386349539722    0.808850252874   -0.003949365876
 O   -0.960938537389   -0.384081127007    0.046770481220
 N   -2.746083115535    1.098347063593   -0.003740822082
 H   -3.370679750838    0.296129229599    0.049291963907
 C   -3.299424407563    2.377869742504   -0.067641438585
 N   -2.568904300794    3.480895143806   -0.133969813267
 N   -4.647957035281    2.465344485614   -0.056828973664
 H   -5.259511763241    1.662691207738   -0.019356602172
 H   -5.059062296623    3.389470277004   -0.107679580196
