34

 N    0.325846557641   -4.498896024651    0.200313947817
 C    1.350146557641   -3.585526024651    0.141723947817
 N    2.675756557641   -3.835696024651    0.146063947817
 C    3.406266557641   -2.732666024651    0.079733947817
 N    2.852926557641   -1.453146024651    0.015833947817
 H    3.477526557641   -0.650936024651   -0.037206052183
 N    4.754806557641   -2.820146024651    0.068913947817
 H    5.366356557641   -2.017486024651    0.031443947817
 H    5.165906557641   -3.744276024651    0.119763947817
 C    1.493196557641   -1.163656024651    0.016043947817
 O    1.067786557641    0.029273975349   -0.034676052183
 C    0.704956557641   -2.340976024651    0.079803947817
 N   -0.673603442359   -2.482736024651    0.098423947817
 C   -0.858993442359   -3.803706024651    0.172003947817
 H   -1.824133442359   -4.302296024651    0.206213947817
 H    0.432086557641   -5.509296024651    0.256553947817
NA   -1.458093442359   -0.284236024651   -0.051136052183
NA    0.863266557641    2.259483975349   -0.016196052183
 C   -0.614427362468    2.040341569127   -0.069552570649
 N    0.764138696272    2.182095037177   -0.088172387672
 C    0.949524251367    3.503062257680   -0.161748755595
 H    1.914667861581    4.001651905159   -0.195966217374
 N   -0.235318469442    4.198263329463   -0.190061961653
 H   -0.341558387064    5.208657318740   -0.246311554860
 C   -1.259612944608    3.284891573730   -0.131476631794
 C   -1.402662721100    0.863021921555   -0.005796045936
 O   -0.977251718767   -0.329909458326    0.044923801160
 N   -2.762396296913    1.152518732273   -0.005587502142
 H   -3.386992932216    0.350300898279    0.047445283848
 C   -3.315737588941    2.432041411184   -0.069488118645
 N   -2.585217482172    3.535066812486   -0.135816493326
 N   -4.664270216659    2.519516154294   -0.058675653724
 H   -5.275824944619    1.716862876418   -0.021203282231
 H   -5.075375478001    3.443641945684   -0.109526260255
