34

 N    0.388377887164   -4.706545678421    0.207392601369
 C    1.412677887164   -3.793175678421    0.148802601369
 N    2.738287887164   -4.043345678421    0.153142601369
 C    3.468797887164   -2.940315678421    0.086812601369
 N    2.915457887164   -1.660795678421    0.022912601369
 H    3.540057887164   -0.858585678421   -0.030127398631
 N    4.817337887164   -3.027795678421    0.075992601369
 H    5.428887887164   -2.225135678421    0.038522601369
 H    5.228437887164   -3.951925678421    0.126842601369
 C    1.555727887164   -1.371305678421    0.023122601369
 O    1.130317887164   -0.178375678421   -0.027597398631
 C    0.767487887164   -2.548625678421    0.086882601369
 N   -0.611072112836   -2.690385678421    0.105502601369
 C   -0.796462112836   -4.011355678421    0.179082601369
 H   -1.761602112836   -4.509945678421    0.213292601369
 H    0.494617887164   -5.716945678421    0.263632601369
NA   -1.395562112836   -0.491885678421   -0.044057398631
NA    0.925797887164    2.051834321579   -0.009117398631
 C   -0.695993269359    2.311199912529   -0.078785970945
 N    0.682572789381    2.452953380579   -0.097405787968
 C    0.867958344477    3.773920601082   -0.170982155891
 H    1.833101954690    4.272510248561   -0.205199617670
 N   -0.316884376333    4.469121672865   -0.199295361949
 H   -0.423124293954    5.479515662142   -0.255544955156
 C   -1.341178851499    3.555749917132   -0.140710032090
 C   -1.484228627990    1.133880264957   -0.015029446232
 O   -1.058817625657   -0.059051114924    0.035690400864
 N   -2.843962203803    1.423377075675   -0.014820902438
 H   -3.468558839106    0.621159241681    0.038211883552
 C   -3.397303495832    2.702899754586   -0.078721518941
 N   -2.666783389062    3.805925155888   -0.145049893623
 N   -4.745836123550    2.790374497696   -0.067909054020
 H   -5.357390851509    1.987721219820   -0.030436682527
 H   -5.156941384891    3.714500289086   -0.118759660551
