34

 N    0.413390418973   -4.789605539929    0.210224062790
 C    1.437690418973   -3.876235539929    0.151634062790
 N    2.763300418973   -4.126405539929    0.155974062790
 C    3.493810418973   -3.023375539929    0.089644062790
 N    2.940470418973   -1.743855539929    0.025744062790
 H    3.565070418973   -0.941645539929   -0.027295937210
 N    4.842350418973   -3.110855539929    0.078824062790
 H    5.453900418973   -2.308195539929    0.041354062790
 H    5.253450418973   -4.034985539929    0.129674062790
 C    1.580740418973   -1.454365539929    0.025954062790
 O    1.155330418973   -0.261435539929   -0.024765937210
 C    0.792500418973   -2.631685539929    0.089714062790
 N   -0.586059581027   -2.773445539929    0.108334062790
 C   -0.771449581027   -4.094415539929    0.181914062790
 H   -1.736589581027   -4.593005539929    0.216124062790
 H    0.519630418973   -5.800005539929    0.266464062790
NA   -1.370549581027   -0.574945539929   -0.041225937210
NA    0.950810418973    1.968774460071   -0.006285937210
 C   -0.728619632115    2.419543249890   -0.082479331063
 N    0.649946426625    2.561296717939   -0.101099148087
 C    0.835331981721    3.882263938443   -0.174675516010
 H    1.800475591934    4.380853585922   -0.208892977788
 N   -0.349510739089    4.577465010225   -0.202988722068
 H   -0.455750656710    5.587858999503   -0.259238315274
 C   -1.373805214255    3.664093254493   -0.144403392208
 C   -1.516854990746    1.242223602317   -0.018722806350
 O   -1.091443988414    0.049292222436    0.031997040746
 N   -2.876588566559    1.531720413036   -0.018514262556
 H   -3.501185201862    0.729502579042    0.034518523433
 C   -3.429929858588    2.811243091947   -0.082414879059
 N   -2.699409751818    3.914268493249   -0.148743253741
 N   -4.778462486306    2.898717835057   -0.071602414138
 H   -5.390017214265    2.096064557181   -0.034130042645
 H   -5.189567747647    3.822843626447   -0.122453020669
