34

 N    0.425896684877   -4.831135470683    0.211639793501
 C    1.450196684877   -3.917765470683    0.153049793501
 N    2.775806684877   -4.167935470683    0.157389793501
 C    3.506316684877   -3.064905470683    0.091059793501
 N    2.952976684877   -1.785385470683    0.027159793501
 H    3.577576684877   -0.983175470683   -0.025880206499
 N    4.854856684877   -3.152385470683    0.080239793501
 H    5.466406684877   -2.349725470683    0.042769793501
 H    5.265956684877   -4.076515470683    0.131089793501
 C    1.593246684877   -1.495895470683    0.027369793501
 O    1.167836684877   -0.302965470683   -0.023350206499
 C    0.805006684877   -2.673215470683    0.091129793501
 N   -0.573553315123   -2.814975470683    0.109749793501
 C   -0.758943315123   -4.135945470683    0.183329793501
 H   -1.724083315123   -4.634535470683    0.217539793501
 H    0.532136684877   -5.841535470683    0.267879793501
NA   -1.358043315123   -0.616475470683   -0.039810206499
NA    0.963316684877    1.927244529317   -0.004870206499
 C   -0.744932813493    2.473714918570   -0.084326011122
 N    0.633633245247    2.615468386620   -0.102945828146
 C    0.819018800342    3.936435607123   -0.176522196069
 H    1.784162410556    4.435025254602   -0.210739657847
 N   -0.365823920467    4.631636678906   -0.204835402127
 H   -0.472063838089    5.642030668183   -0.261084995334
 C   -1.390118395633    3.718264923173   -0.146250072268
 C   -1.533168172124    1.296395270998   -0.020569486410
 O   -1.107757169792    0.103463891117    0.030150360686
 N   -2.892901747937    1.585892081716   -0.020360942616
 H   -3.517498383241    0.783674247722    0.032671843374
 C   -3.446243039966    2.865414760627   -0.084261559119
 N   -2.715722933196    3.968440161929   -0.150589933800
 N   -4.794775667684    2.952889503737   -0.073449094197
 H   -5.406330395643    2.150236225861   -0.035976722705
 H   -5.205880929026    3.877015295127   -0.124299700729
