34

 N    0.438402950782   -4.872665401437    0.213055524211
 C    1.462702950782   -3.959295401437    0.154465524211
 N    2.788312950782   -4.209465401437    0.158805524211
 C    3.518822950782   -3.106435401437    0.092475524211
 N    2.965482950782   -1.826915401437    0.028575524211
 H    3.590082950782   -1.024705401437   -0.024464475789
 N    4.867362950782   -3.193915401437    0.081655524211
 H    5.478912950782   -2.391255401437    0.044185524211
 H    5.278462950782   -4.118045401437    0.132505524211
 C    1.605752950782   -1.537425401437    0.028785524211
 O    1.180342950782   -0.344495401437   -0.021934475789
 C    0.817512950782   -2.714745401437    0.092545524211
 N   -0.561047049218   -2.856505401437    0.111165524211
 C   -0.746437049218   -4.177475401437    0.184745524211
 H   -1.711577049218   -4.676065401437    0.218955524211
 H    0.544642950782   -5.883065401437    0.269295524211
NA   -1.345537049218   -0.658005401437   -0.038394475789
NA    0.975822950782    1.885714598563   -0.003454475789
 C   -0.761245994871    2.527886587250   -0.086172691182
 N    0.617320063869    2.669640055300   -0.104792508205
 C    0.802705618964    3.990607275804   -0.178368876128
 H    1.767849229178    4.489196923282   -0.212586337907
 N   -0.382137101845    4.685808347586   -0.206682082186
 H   -0.488377019467    5.696202336863   -0.262931675393
 C   -1.406431577011    3.772436591854   -0.148096752327
 C   -1.549481353503    1.350566939678   -0.022416166469
 O   -1.124070351170    0.157635559797    0.028303680627
 N   -2.909214929316    1.640063750397   -0.022207622675
 H   -3.533811564619    0.837845916403    0.030825163315
 C   -3.462556221344    2.919586429307   -0.086108239178
 N   -2.732036114575    4.022611830610   -0.152436613860
 N   -4.811088849062    3.007061172418   -0.075295774257
 H   -5.422643577022    2.204407894542   -0.037823402764
 H   -5.222194110404    3.931186963808   -0.126146380788
