34

 N    0.463415482591   -4.955725262945    0.215886985632
 C    1.487715482591   -4.042355262945    0.157296985632
 N    2.813325482591   -4.292525262945    0.161636985632
 C    3.543835482591   -3.189495262945    0.095306985632
 N    2.990495482591   -1.909975262945    0.031406985632
 H    3.615095482591   -1.107765262945   -0.021633014368
 N    4.892375482591   -3.276975262945    0.084486985632
 H    5.503925482591   -2.474315262945    0.047016985632
 H    5.303475482591   -4.201105262945    0.135336985632
 C    1.630765482591   -1.620485262945    0.031616985632
 O    1.205355482591   -0.427555262945   -0.019103014368
 C    0.842525482591   -2.797805262945    0.095376985632
 N   -0.536034517409   -2.939565262945    0.113996985632
 C   -0.721424517409   -4.260535262945    0.187576985632
 H   -1.686564517409   -4.759125262945    0.221786985632
 H    0.569655482591   -5.966125262945    0.272126985632
NA   -1.320524517409   -0.741065262945   -0.035563014368
NA    1.000835482591    1.802654737055   -0.000623014368
 C   -0.793872357627    2.636229924611   -0.089866051300
 N    0.584693701113    2.777983392661   -0.108485868323
 C    0.770079256208    4.098950613164   -0.182062236247
 H    1.735222866422    4.597540260643   -0.216279698025
 N   -0.414763464601    4.794151684947   -0.210375442305
 H   -0.521003382223    5.804545674224   -0.266625035511
 C   -1.439057939767    3.880779929214   -0.151790112445
 C   -1.582107716259    1.458910277039   -0.026109526587
 O   -1.156696713926    0.265978897158    0.024610320509
 N   -2.941841292072    1.748407087757   -0.025900982793
 H   -3.566437927375    0.946189253763    0.027131803196
 C   -3.495182584100    3.027929766668   -0.089801599296
 N   -2.764662477331    4.130955167970   -0.156129973978
 N   -4.843715211818    3.115404509778   -0.078989134375
 H   -5.455269939778    2.312751231902   -0.041516762882
 H   -5.254820473160    4.039530301169   -0.129839740906
