34

 N    0.488428014400   -5.038785124453    0.218718447053
 C    1.512728014400   -4.125415124453    0.160128447053
 N    2.838338014400   -4.375585124453    0.164468447053
 C    3.568848014400   -3.272555124453    0.098138447053
 N    3.015508014400   -1.993035124453    0.034238447053
 H    3.640108014400   -1.190825124453   -0.018801552947
 N    4.917388014400   -3.360035124453    0.087318447053
 H    5.528938014400   -2.557375124453    0.049848447053
 H    5.328488014400   -4.284165124453    0.138168447053
 C    1.655778014400   -1.703545124453    0.034448447053
 O    1.230368014400   -0.510615124453   -0.016271552947
 C    0.867538014400   -2.880865124453    0.098208447053
 N   -0.511021985600   -3.022625124453    0.116828447053
 C   -0.696411985600   -4.343595124453    0.190408447053
 H   -1.661551985600   -4.842185124453    0.224618447053
 H    0.594668014400   -6.049185124453    0.274958447053
NA   -1.295511985600   -0.824125124453   -0.032731552947
NA    1.025848014400    1.719594875547    0.002208447053
 C   -0.826498720384    2.744573261972   -0.093559411419
 N    0.552067338356    2.886326730022   -0.112179228442
 C    0.737452893452    4.207293950525   -0.185755596365
 H    1.702596503666    4.705883598004   -0.219973058144
 N   -0.447389827358    4.902495022307   -0.214068802423
 H   -0.553629744979    5.912889011585   -0.270318395630
 C   -1.471684302524    3.989123266575   -0.155483472564
 C   -1.614734079015    1.567253614399   -0.029802886706
 O   -1.189323076682    0.374322234519    0.020916960390
 N   -2.974467654828    1.856750425118   -0.029594342912
 H   -3.599064290131    1.054532591124    0.023438443078
 C   -3.527808946856    3.136273104029   -0.093494959415
 N   -2.797288840087    4.239298505331   -0.159823334096
 N   -4.876341574574    3.223747847139   -0.082682494494
 H   -5.487896302534    2.421094569263   -0.045210123001
 H   -5.287446835916    4.147873638529   -0.133533101025
