34

 N    0.500934280305   -5.080315055207    0.220134177763
 C    1.525234280305   -4.166945055207    0.161544177763
 N    2.850844280305   -4.417115055207    0.165884177763
 C    3.581354280305   -3.314085055207    0.099554177763
 N    3.028014280305   -2.034565055207    0.035654177763
 H    3.652614280305   -1.232355055207   -0.017385822237
 N    4.929894280305   -3.401565055207    0.088734177763
 H    5.541444280305   -2.598905055207    0.051264177763
 H    5.340994280305   -4.325695055207    0.139584177763
 C    1.668284280305   -1.745075055207    0.035864177763
 O    1.242874280305   -0.552145055207   -0.014855822237
 C    0.880044280305   -2.922395055207    0.099624177763
 N   -0.498515719695   -3.064155055207    0.118244177763
 C   -0.683905719695   -4.385125055207    0.191824177763
 H   -1.649045719695   -4.883715055207    0.226034177763
 H    0.607174280305   -6.090715055207    0.276374177763
NA   -1.283005719695   -0.865655055207   -0.031315822237
NA    1.038354280305    1.678064944793    0.003624177763
 C   -0.842811901762    2.798744930652   -0.095406091478
 N    0.535754156978    2.940498398702   -0.114025908501
 C    0.721139712074    4.261465619206   -0.187602276424
 H    1.686283322288    4.760055266684   -0.221819738203
 N   -0.463703008736    4.956666690988   -0.215915482482
 H   -0.569942926357    5.967060680265   -0.272165075689
 C   -1.487997483902    4.043294935255   -0.157330152623
 C   -1.631047260393    1.621425283080   -0.031649566765
 O   -1.205636258060    0.428493903199    0.019070280331
 N   -2.990780836206    1.910922093799   -0.031441022971
 H   -3.615377471509    1.108704259804    0.021591763018
 C   -3.544122128234    3.190444772709   -0.095341639474
 N   -2.813602021465    4.293470174011   -0.161670014156
 N   -4.892654755952    3.277919515819   -0.084529174553
 H   -5.504209483912    2.475266237943   -0.047056803060
 H   -5.303760017294    4.202045307210   -0.135379781084
