34

 N    0.525946812114   -5.163374916715    0.222965639184
 C    1.550246812114   -4.250004916715    0.164375639184
 N    2.875856812114   -4.500174916715    0.168715639184
 C    3.606366812114   -3.397144916715    0.102385639184
 N    3.053026812114   -2.117624916715    0.038485639184
 H    3.677626812114   -1.315414916715   -0.014554360816
 N    4.954906812114   -3.484624916715    0.091565639184
 H    5.566456812114   -2.681964916715    0.054095639184
 H    5.366006812114   -4.408754916715    0.142415639184
 C    1.693296812114   -1.828134916715    0.038695639184
 O    1.267886812114   -0.635204916715   -0.012024360816
 C    0.905056812114   -3.005454916715    0.102455639184
 N   -0.473503187886   -3.147214916715    0.121075639184
 C   -0.658893187886   -4.468184916715    0.194655639184
 H   -1.624033187886   -4.966774916715    0.228865639184
 H    0.632186812114   -6.173774916715    0.279205639184
NA   -1.257993187886   -0.948714916715   -0.028484360816
NA    1.063366812114    1.595005083285    0.006455639184
 C   -0.875438264518    2.907088268013   -0.099099451596
 N    0.503127794222    3.048841736063   -0.117719268620
 C    0.688513349318    4.369808956566   -0.191295636543
 H    1.653656959531    4.868398604045   -0.225513098321
 N   -0.496329371492    5.065010028349   -0.219608842601
 H   -0.602569289113    6.075404017626   -0.275858435807
 C   -1.520623846658    4.151638272616   -0.161023512742
 C   -1.663673623149    1.729768620441   -0.035342926883
 O   -1.238262620816    0.536837240560    0.015376920213
 N   -3.023407198962    2.019265431159   -0.035134383089
 H   -3.648003834265    1.217047597165    0.017898402900
 C   -3.576748490991    3.298788110070   -0.099034999592
 N   -2.846228384221    4.401813511372   -0.165363374274
 N   -4.925281118709    3.386262853180   -0.088222534671
 H   -5.536835846668    2.583609575304   -0.050750163178
 H   -5.336386380050    4.310388644570   -0.139073141202
