34

 N    0.563465609827   -5.287964708977    0.227212831315
 C    1.587765609827   -4.374594708977    0.168622831315
 N    2.913375609827   -4.624764708977    0.172962831315
 C    3.643885609827   -3.521734708977    0.106632831315
 N    3.090545609827   -2.242214708977    0.042732831315
 H    3.715145609827   -1.440004708977   -0.010307168685
 N    4.992425609827   -3.609214708977    0.095812831315
 H    5.603975609827   -2.806554708977    0.058342831315
 H    5.403525609827   -4.533344708977    0.146662831315
 C    1.730815609827   -1.952724708977    0.042942831315
 O    1.305405609827   -0.759794708977   -0.007777168685
 C    0.942575609827   -3.130044708977    0.106702831315
 N   -0.435984390173   -3.271804708977    0.125322831315
 C   -0.621374390173   -4.592774708977    0.198902831315
 H   -1.586514390173   -5.091364708977    0.233112831315
 H    0.669705609827   -6.298364708977    0.283452831315
NA   -1.220474390173   -1.073304708977   -0.024237168685
NA    1.100885609827    1.470415291023    0.010702831315
 C   -0.924377808652    3.069603274054   -0.104639491774
 N    0.454188250088    3.211356742104   -0.123259308797
 C    0.639573805183    4.532323962607   -0.196835676720
 H    1.604717415397    5.030913610086   -0.231053138499
 N   -0.545268915626    5.227525034390   -0.225148882778
 H   -0.651508833248    6.237919023667   -0.281398475985
 C   -1.569563390792    4.314153278657   -0.166563552919
 C   -1.712613167284    1.892283626482   -0.040882967061
 O   -1.287202164951    0.699352246601    0.009836880035
 N   -3.072346743097    2.181780437200   -0.040674423267
 H   -3.696943378400    1.379562603206    0.012358362722
 C   -3.625688035125    3.461303116111   -0.104575039770
 N   -2.895167928355    4.564328517413   -0.170903414452
 N   -4.974220662843    3.548777859221   -0.093762574849
 H   -5.585775390803    2.746124581345   -0.056290203356
 H   -5.385325924185    4.472903650611   -0.144613181380
