34

 N    0.651009471159   -5.578674224254    0.237122946288
 C    1.675309471159   -4.665304224254    0.178532946288
 N    3.000919471159   -4.915474224254    0.182872946288
 C    3.731429471159   -3.812444224254    0.116542946288
 N    3.178089471159   -2.532924224254    0.052642946288
 H    3.802689471159   -1.730714224254   -0.000397053712
 N    5.079969471159   -3.899924224254    0.105722946288
 H    5.691519471159   -3.097264224254    0.068252946288
 H    5.491069471159   -4.824054224254    0.156572946288
 C    1.818359471159   -2.243434224254    0.052852946288
 O    1.392949471159   -1.050504224254    0.002132946288
 C    1.030119471159   -3.420754224254    0.116612946288
 N   -0.348440528841   -3.562514224254    0.135232946288
 C   -0.533830528841   -4.883484224254    0.208812946288
 H   -1.498970528841   -5.382074224254    0.243022946288
 H    0.757249471159   -6.589074224254    0.293362946288
NA   -1.132930528841   -1.364014224254   -0.014327053712
NA    1.188429471159    1.179705775746    0.020612946288
 C   -1.038570078299    3.448804954817   -0.117566252189
 N    0.339995980441    3.590558422866   -0.136186069212
 C    0.525381535537    4.911525643370   -0.209762437135
 H    1.490525145750    5.410115290849   -0.243979898914
 N   -0.659461185273    5.606726715152   -0.238075643193
 H   -0.765701102894    6.617120704430   -0.294325236400
 C   -1.683755660439    4.693354959420   -0.179490313334
 C   -1.826805436930    2.271485307244   -0.053809727476
 O   -1.401394434597    1.078553927363   -0.003089880380
 N   -3.186539012743    2.560982117963   -0.053601183682
 H   -3.811135648046    1.758764283969   -0.000568397692
 C   -3.739880304772    3.840504796874   -0.117501800185
 N   -3.009360198002    4.943530198176   -0.183830174866
 N   -5.088412932490    3.927979539984   -0.106689335264
 H   -5.699967660449    3.125326262108   -0.069216963771
 H   -5.499518193831    4.852105331374   -0.157539941795
