34

 N    0.663515737064   -5.620204155008    0.238538676998
 C    1.687815737064   -4.706834155008    0.179948676998
 N    3.013425737064   -4.957004155008    0.184288676998
 C    3.743935737064   -3.853974155008    0.117958676998
 N    3.190595737064   -2.574454155008    0.054058676998
 H    3.815195737064   -1.772244155008    0.001018676998
 N    5.092475737064   -3.941454155008    0.107138676998
 H    5.704025737064   -3.138794155008    0.069668676998
 H    5.503575737064   -4.865584155008    0.157988676998
 C    1.830865737064   -2.284964155008    0.054268676998
 O    1.405455737064   -1.092034155008    0.003548676998
 C    1.042625737064   -3.462284155008    0.118028676998
 N   -0.335934262936   -3.604044155008    0.136648676998
 C   -0.521324262936   -4.925014155008    0.210228676998
 H   -1.486464262936   -5.423604155008    0.244438676998
 H    0.769755737064   -6.630604155008    0.294778676998
NA   -1.120424262936   -1.405544155008   -0.012911323002
NA    1.200935737064    1.138175844992    0.022028676998
 C   -1.054883259677    3.502976623497   -0.119412932248
 N    0.323682799063    3.644730091547   -0.138032749271
 C    0.509068354159    4.965697312050   -0.211609117194
 H    1.474211964372    5.464286959529   -0.245826578973
 N   -0.675774366651    5.660898383833   -0.239922323252
 H   -0.782014284272    6.671292373110   -0.296171916459
 C   -1.700068841817    4.747526628100   -0.181336993393
 C   -1.843118618308    2.325656975925   -0.055656407535
 O   -1.417707615976    1.132725596044   -0.004936560439
 N   -3.202852194121    2.615153786643   -0.055447863741
 H   -3.827448829424    1.812935952649   -0.002415077752
 C   -3.756193486150    3.894676465554   -0.119348480244
 N   -3.025673379380    4.997701866856   -0.185676854926
 N   -5.104726113868    3.982151208664   -0.108536015323
 H   -5.716280841827    3.179497930788   -0.071063643830
 H   -5.515831375209    4.906277000054   -0.159386621854
