34

 N    0.676022002968   -5.661734085762    0.239954407709
 C    1.700322002968   -4.748364085762    0.181364407709
 N    3.025932002968   -4.998534085762    0.185704407709
 C    3.756442002968   -3.895504085762    0.119374407709
 N    3.203102002968   -2.615984085762    0.055474407709
 H    3.827702002968   -1.813774085762    0.002434407709
 N    5.104982002968   -3.982984085762    0.108554407709
 H    5.716532002968   -3.180324085762    0.071084407709
 H    5.516082002968   -4.907114085762    0.159404407709
 C    1.843372002968   -2.326494085762    0.055684407709
 O    1.417962002968   -1.133564085762    0.004964407709
 C    1.055132002968   -3.503814085762    0.119444407709
 N   -0.323427997032   -3.645574085762    0.138064407709
 C   -0.508817997032   -4.966544085762    0.211644407709
 H   -1.473957997032   -5.465134085762    0.245854407709
 H    0.782262002968   -6.672134085762    0.296194407709
NA   -1.107917997032   -1.447074085762   -0.011495592291
NA    1.213442002968    1.096645914238    0.023444407709
 C   -1.071196441055    3.557148292177   -0.121259612307
 N    0.307369617685    3.698901760227   -0.139879429330
 C    0.492755172780    5.019868980731   -0.213455797254
 H    1.457898782994    5.518458628209   -0.247673259032
 N   -0.692087548029    5.715070052513   -0.241769003312
 H   -0.798327465651    6.725464041790   -0.298018596518
 C   -1.716382023195    4.801698296781   -0.183183673452
 C   -1.859431799686    2.379828644605   -0.057503087594
 O   -1.434020797354    1.186897264724   -0.006783240498
 N   -3.219165375499    2.669325455324   -0.057294543800
 H   -3.843762010803    1.867107621330   -0.004261757811
 C   -3.772506667528    3.948848134234   -0.121195160303
 N   -3.041986560758    5.051873535537   -0.187523534985
 N   -5.121039295246    4.036322877345   -0.110382695382
 H   -5.732594023205    3.233669599469   -0.072910323889
 H   -5.532144556588    4.960448668735   -0.161233301913
