34

 N    0.726047066586   -5.827853808778    0.245617330550
 C    1.750347066586   -4.914483808778    0.187027330550
 N    3.075957066586   -5.164653808778    0.191367330550
 C    3.806467066586   -4.061623808778    0.125037330550
 N    3.253127066586   -2.782103808778    0.061137330550
 H    3.877727066586   -1.979893808778    0.008097330550
 N    5.155007066586   -4.149103808778    0.114217330550
 H    5.766557066586   -3.346443808778    0.076747330550
 H    5.566107066586   -5.073233808778    0.165067330550
 C    1.893397066586   -2.492613808778    0.061347330550
 O    1.467987066586   -1.299683808778    0.010627330550
 C    1.105157066586   -3.669933808778    0.125107330550
 N   -0.273402933414   -3.811693808778    0.143727330550
 C   -0.458792933414   -5.132663808778    0.217307330550
 H   -1.423932933414   -5.631253808778    0.251517330550
 H    0.832287066586   -6.838253808778    0.301857330550
NA   -1.057892933414   -1.613193808778   -0.005832669450
NA    1.263467066586    0.930526191222    0.029107330550
 C   -1.136449166567    3.773834966899   -0.128646332544
 N    0.242116892173    3.915588434949   -0.147266149567
 C    0.427502447268    5.236555655452   -0.220842517490
 H    1.392646057482    5.735145302931   -0.255059979269
 N   -0.757340273542    5.931756727234   -0.249155723549
 H   -0.863580191163    6.942150716512   -0.305405316755
 C   -1.781634748708    5.018384971502   -0.190570393689
 C   -1.924684525199    2.596515319326   -0.064889807831
 O   -1.499273522866    1.403583939445   -0.014169960735
 N   -3.284418101012    2.886012130045   -0.064681264037
 H   -3.909014736315    2.083794296051   -0.011648478048
 C   -3.837759393040    4.165534808956   -0.128581880540
 N   -3.107239286271    5.268560210258   -0.194910255222
 N   -5.186292020758    4.253009552066   -0.117769415619
 H   -5.797846748718    3.450356274190   -0.080297044126
 H   -5.597397282100    5.177135343456   -0.168620022150
