34

 N    0.738553332491   -5.869383739532    0.247033061261
 C    1.762853332491   -4.956013739532    0.188443061261
 N    3.088463332491   -5.206183739532    0.192783061261
 C    3.818973332491   -4.103153739532    0.126453061261
 N    3.265633332491   -2.823633739532    0.062553061261
 H    3.890233332491   -2.021423739532    0.009513061261
 N    5.167513332491   -4.190633739532    0.115633061261
 H    5.779063332491   -3.387973739532    0.078163061261
 H    5.578613332491   -5.114763739532    0.166483061261
 C    1.905903332491   -2.534143739532    0.062763061261
 O    1.480493332491   -1.341213739532    0.012043061261
 C    1.117663332491   -3.711463739532    0.126523061261
 N   -0.260896667509   -3.853223739532    0.145143061261
 C   -0.446286667509   -5.174193739532    0.218723061261
 H   -1.411426667509   -5.672783739532    0.252933061261
 H    0.844793332491   -6.879783739532    0.303273061261
NA   -1.045386667509   -1.654723739532   -0.004416938739
NA    1.275973332491    0.888996260468    0.030523061261
 C   -1.152762347945    3.828006635579   -0.130493012603
 N    0.225803710794    3.969760103629   -0.149112829627
 C    0.411189265890    5.290727324133   -0.222689197550
 H    1.376332876104    5.789316971611   -0.256906659328
 N   -0.773653454920    5.985928395915   -0.251002403608
 H   -0.879893372541    6.996322385192   -0.307251996814
 C   -1.797947930086    5.072556640182   -0.192417073748
 C   -1.940997706577    2.650686988007   -0.066736487890
 O   -1.515586704244    1.457755608126   -0.016016640794
 N   -3.300731282390    2.940183798726   -0.066527944096
 H   -3.925327917693    2.137965964731   -0.013495158107
 C   -3.854072574418    4.219706477636   -0.130428560599
 N   -3.123552467649    5.322731878938   -0.196756935281
 N   -5.202605202136    4.307181220746   -0.119616095678
 H   -5.814159930096    3.504527942870   -0.082143724185
 H   -5.613710463478    5.231307012137   -0.170466702209
