34

 N    0.776072130205   -5.993973531794    0.251280253392
 C    1.800372130205   -5.080603531794    0.192690253392
 N    3.125982130205   -5.330773531794    0.197030253392
 C    3.856492130205   -4.227743531794    0.130700253392
 N    3.303152130205   -2.948223531794    0.066800253392
 H    3.927752130205   -2.146013531794    0.013760253392
 N    5.205032130205   -4.315223531794    0.119880253392
 H    5.816582130205   -3.512563531794    0.082410253392
 H    5.616132130205   -5.239353531794    0.170730253392
 C    1.943422130205   -2.658733531794    0.067010253392
 O    1.518012130205   -1.465803531794    0.016290253392
 C    1.155182130205   -3.836053531794    0.130770253392
 N   -0.223377869795   -3.977813531794    0.149390253392
 C   -0.408767869795   -5.298783531794    0.222970253392
 H   -1.373907869795   -5.797373531794    0.257180253392
 H    0.882312130205   -7.004373531794    0.307520253392
NA   -1.007867869795   -1.779313531794   -0.000169746608
NA    1.313492130205    0.764406468206    0.034770253392
 C   -1.201701892080    3.990521641620   -0.136033052781
 N    0.176864166660    4.132275109670   -0.154652869804
 C    0.362249721756    5.453242330174   -0.228229237727
 H    1.327393331969    5.951831977652   -0.262446699506
 N   -0.822592999054    6.148443401956   -0.256542443785
 H   -0.928832916675    7.158837391233   -0.312792036992
 C   -1.846887474220    5.235071646224   -0.197957113926
 C   -1.989937250711    2.813201994048   -0.072276528068
 O   -1.564526248378    1.620270614167   -0.021556680972
 N   -3.349670826524    3.102698804767   -0.072067984274
 H   -3.974267461827    2.300480970773   -0.019035198285
 C   -3.903012118553    4.382221483677   -0.135968600777
 N   -3.172492011783    5.485246884980   -0.202296975459
 N   -5.251544746271    4.469696226788   -0.125156135856
 H   -5.863099474230    3.667042948912   -0.087683764363
 H   -5.662650007612    5.393822018178   -0.176006742387
