34

 N    0.851109725632   -6.243153116318    0.259774637654
 C    1.875409725632   -5.329783116318    0.201184637654
 N    3.201019725632   -5.579953116318    0.205524637654
 C    3.931529725632   -4.476923116318    0.139194637654
 N    3.378189725632   -3.197403116318    0.075294637654
 H    4.002789725632   -2.395193116318    0.022254637654
 N    5.280069725632   -4.564403116318    0.128374637654
 H    5.891619725632   -3.761743116318    0.090904637654
 H    5.691169725632   -5.488533116318    0.179224637654
 C    2.018459725632   -2.907913116318    0.075504637654
 O    1.593049725632   -1.714983116318    0.024784637654
 C    1.230219725632   -4.085233116318    0.139264637654
 N   -0.148340274368   -4.226993116318    0.157884637654
 C   -0.333730274368   -5.547963116318    0.231464637654
 H   -1.298870274368   -6.046553116318    0.265674637654
 H    0.957349725632   -7.253553116318    0.316014637654
NA   -0.932830274368   -2.028493116318    0.008324637654
NA    1.388529725632    0.515226883682    0.043264637654
 C   -1.299580980348    4.315551653702   -0.147113133136
 N    0.078985078392    4.457305121752   -0.165732950160
 C    0.264370633487    5.778272342256   -0.239309318083
 H    1.229514243701    6.276861989735   -0.273526779861
 N   -0.920472087323    6.473473414038   -0.267622524141
 H   -1.026712004944    7.483867403316   -0.323872117347
 C   -1.944766562489    5.560101658306   -0.209037194282
 C   -2.087816338980    3.138232006130   -0.083356608423
 O   -1.662405336647    1.945300626249   -0.032636761327
 N   -3.447549914793    3.427728816849   -0.083148064629
 H   -4.072146550096    2.625510982855   -0.030115278640
 C   -4.000891206821    4.707251495760   -0.147048681132
 N   -3.270371100052    5.810276897062   -0.213377055814
 N   -5.349423834539    4.794726238870   -0.136236216211
 H   -5.960978562499    3.992072960994   -0.098763844718
 H   -5.760529095881    5.718852030260   -0.187086822743
