34

 N    0.888628523345   -6.367742908580    0.264021829786
 C    1.912928523345   -5.454372908580    0.205431829786
 N    3.238538523345   -5.704542908580    0.209771829786
 C    3.969048523345   -4.601512908580    0.143441829786
 N    3.415708523345   -3.321992908580    0.079541829786
 H    4.040308523345   -2.519782908580    0.026501829786
 N    5.317588523345   -4.688992908580    0.132621829786
 H    5.929138523345   -3.886332908580    0.095151829786
 H    5.728688523345   -5.613122908580    0.183471829786
 C    2.055978523345   -3.032502908580    0.079751829786
 O    1.630568523345   -1.839572908580    0.029031829786
 C    1.267738523345   -4.209822908580    0.143511829786
 N   -0.110821476655   -4.351582908580    0.162131829786
 C   -0.296211476655   -5.672552908580    0.235711829786
 H   -1.261351476655   -6.171142908580    0.269921829786
 H    0.994868523345   -7.378142908580    0.320261829786
NA   -0.895311476655   -2.153082908580    0.012571829786
NA    1.426048523345    0.390637091420    0.047511829786
 C   -1.348520524483    4.478066659744   -0.152653173314
 N    0.030045534257    4.619820127793   -0.171272990337
 C    0.215431089353    5.940787348297   -0.244849358260
 H    1.180574699567    6.439376995776   -0.279066820039
 N   -0.969411631457    6.635988420079   -0.273162564319
 H   -1.075651549078    7.646382409357   -0.329412157525
 C   -1.993706106623    5.722616664347   -0.214577234459
 C   -2.136755883114    3.300747012171   -0.088896648601
 O   -1.711344880781    2.107815632290   -0.038176801505
 N   -3.496489458927    3.590243822890   -0.088688104807
 H   -4.121086094230    2.788025988896   -0.035655318818
 C   -4.049830750955    4.869766501801   -0.152588721310
 N   -3.319310644186    5.972791903103   -0.218917095992
 N   -5.398363378674    4.957241244911   -0.141776256389
 H   -6.009918106633    4.154587967035   -0.104303884896
 H   -5.809468640015    5.881367036301   -0.192626862920
