34

 N    0.901134789250   -6.409272839334    0.265437560496
 C    1.925434789250   -5.495902839334    0.206847560496
 N    3.251044789250   -5.746072839334    0.211187560496
 C    3.981554789250   -4.643042839334    0.144857560496
 N    3.428214789250   -3.363522839334    0.080957560496
 H    4.052814789250   -2.561312839334    0.027917560496
 N    5.330094789250   -4.730522839334    0.134037560496
 H    5.941644789250   -3.927862839334    0.096567560496
 H    5.741194789250   -5.654652839334    0.184887560496
 C    2.068484789250   -3.074032839334    0.081167560496
 O    1.643074789250   -1.881102839334    0.030447560496
 C    1.280244789250   -4.251352839334    0.144927560496
 N   -0.098315210750   -4.393112839334    0.163547560496
 C   -0.283705210750   -5.714082839334    0.237127560496
 H   -1.248845210750   -6.212672839334    0.271337560496
 H    1.007374789250   -7.419672839334    0.321677560496
NA   -0.882805210750   -2.194612839334    0.013987560496
NA    1.438554789250    0.349107160666    0.048927560496
 C   -1.364833705861    4.532238328424   -0.154499853373
 N    0.013732352879    4.673991796474   -0.173119670397
 C    0.199117907975    5.994959016977   -0.246696038320
 H    1.164261518188    6.493548664456   -0.280913500098
 N   -0.985724812835    6.690160088760   -0.275009244378
 H   -1.091964730456    7.700554078037   -0.331258837584
 C   -2.010019288001    5.776788333027   -0.216423914519
 C   -2.153069064492    3.354918680852   -0.090743328660
 O   -1.727658062159    2.161987300971   -0.040023481564
 N   -3.512802640305    3.644415491570   -0.090534784866
 H   -4.137399275608    2.842197657576   -0.037501998877
 C   -4.066143932334    4.923938170481   -0.154435401369
 N   -3.335623825564    6.026963571783   -0.220763776051
 N   -5.414676560052    5.011412913591   -0.143622936448
 H   -6.026231288011    4.208759635715   -0.106150564955
 H   -5.825781821393    5.935538704981   -0.194473542979
