34

 N    0.913641055155   -6.450802770088    0.266853291206
 C    1.937941055155   -5.537432770088    0.208263291206
 N    3.263551055155   -5.787602770088    0.212603291206
 C    3.994061055155   -4.684572770088    0.146273291206
 N    3.440721055155   -3.405052770088    0.082373291206
 H    4.065321055155   -2.602842770088    0.029333291206
 N    5.342601055155   -4.772052770088    0.135453291206
 H    5.954151055155   -3.969392770088    0.097983291206
 H    5.753701055155   -5.696182770088    0.186303291206
 C    2.080991055155   -3.115562770088    0.082583291206
 O    1.655581055155   -1.922632770088    0.031863291206
 C    1.292751055155   -4.292882770088    0.146343291206
 N   -0.085808944845   -4.434642770088    0.164963291206
 C   -0.271198944845   -5.755612770088    0.238543291206
 H   -1.236338944845   -6.254202770088    0.272753291206
 H    1.019881055155   -7.461202770088    0.323093291206
NA   -0.870298944845   -2.236142770088    0.015403291206
NA    1.451061055155    0.307577229912    0.050343291206
 C   -1.381146887239    4.586409997104   -0.156346533433
 N   -0.002580828499    4.728163465154   -0.174966350456
 C    0.182804726597    6.049130685658   -0.248542718379
 H    1.147948336810    6.547720333136   -0.282760180157
 N   -1.002037994213    6.744331757440   -0.276855924437
 H   -1.108277911834    7.754725746717   -0.333105517644
 C   -2.026332469379    5.830960001708   -0.218270594578
 C   -2.169382245870    3.409090349532   -0.092590008720
 O   -1.743971243538    2.216158969651   -0.041870161624
 N   -3.529115821683    3.698587160251   -0.092381464926
 H   -4.153712456986    2.896369326257   -0.039348678936
 C   -4.082457113712    4.978109839161   -0.156282081429
 N   -3.351937006942    6.081135240464   -0.222610456110
 N   -5.430989741430    5.065584582272   -0.145469616508
 H   -6.042544469389    4.262931304396   -0.107997245015
 H   -5.842095002771    5.989710373662   -0.196320223039
