34

 N    0.926147321059   -6.492332700842    0.268269021917
 C    1.950447321059   -5.578962700842    0.209679021917
 N    3.276057321059   -5.829132700842    0.214019021917
 C    4.006567321059   -4.726102700842    0.147689021917
 N    3.453227321059   -3.446582700842    0.083789021917
 H    4.077827321059   -2.644372700842    0.030749021917
 N    5.355107321059   -4.813582700842    0.136869021917
 H    5.966657321059   -4.010922700842    0.099399021917
 H    5.766207321059   -5.737712700842    0.187719021917
 C    2.093497321059   -3.157092700842    0.083999021917
 O    1.668087321059   -1.964162700842    0.033279021917
 C    1.305257321059   -4.334412700842    0.147759021917
 N   -0.073302678941   -4.476172700842    0.166379021917
 C   -0.258692678941   -5.797142700842    0.239959021917
 H   -1.223832678941   -6.295732700842    0.274169021917
 H    1.032387321059   -7.502732700842    0.324509021917
NA   -0.857792678941   -2.277672700842    0.016819021917
NA    1.463567321059    0.266047299158    0.051759021917
 C   -1.397460068617    4.640581665785   -0.158193213492
 N   -0.018894009877    4.782335133834   -0.176813030515
 C    0.166491545218    6.103302354338   -0.250389398438
 H    1.131635155432    6.601892001817   -0.284606860217
 N   -1.018351175591    6.798503426120   -0.278702604496
 H   -1.124591093213    7.808897415398   -0.334952197703
 C   -2.042645650757    5.885131670388   -0.220117274637
 C   -2.185695427248    3.463262018212   -0.094436688779
 O   -1.760284424916    2.270330638331   -0.043716841683
 N   -3.545429003061    3.752758828931   -0.094228144985
 H   -4.170025638365    2.950540994937   -0.041195358995
 C   -4.098770295090    5.032281507842   -0.158128761488
 N   -3.368250188320    6.135306909144   -0.224457136170
 N   -5.447302922808    5.119756250952   -0.147316296567
 H   -6.058857650767    4.317102973076   -0.109843925074
 H   -5.858408184150    6.043882042342   -0.198166903098
