34

 N    0.951159852868   -6.575392562350    0.271100483338
 C    1.975459852868   -5.662022562350    0.212510483338
 N    3.301069852868   -5.912192562350    0.216850483338
 C    4.031579852868   -4.809162562350    0.150520483338
 N    3.478239852868   -3.529642562350    0.086620483338
 H    4.102839852868   -2.727432562350    0.033580483338
 N    5.380119852868   -4.896642562350    0.139700483338
 H    5.991669852868   -4.093982562350    0.102230483338
 H    5.791219852868   -5.820772562350    0.190550483338
 C    2.118509852868   -3.240152562350    0.086830483338
 O    1.693099852868   -2.047222562350    0.036110483338
 C    1.330269852868   -4.417472562350    0.150590483338
 N   -0.048290147132   -4.559232562350    0.169210483338
 C   -0.233680147132   -5.880202562350    0.242790483338
 H   -1.198820147132   -6.378792562350    0.277000483338
 H    1.057399852868   -7.585792562350    0.327340483338
NA   -0.832780147132   -2.360732562350    0.019650483338
NA    1.488579852868    0.182987437650    0.054590483338
 C   -1.430086431373    4.748925003145   -0.161886573610
 N   -0.051520372633    4.890678471195   -0.180506390634
 C    0.133865182462    6.211645691699   -0.254082758557
 H    1.099008792676    6.710235339178   -0.288300220335
 N   -1.050977538347    6.906846763481   -0.282395964615
 H   -1.157217455969    7.917240752759   -0.338645557821
 C   -2.075272013513    5.993475007749   -0.223810634755
 C   -2.218321790005    3.571605355573   -0.098130048897
 O   -1.792910787672    2.378673975692   -0.047410201801
 N   -3.578055365818    3.861102166292   -0.097921505103
 H   -4.202652001121    3.058884332298   -0.044888719114
 C   -4.131396657846    5.140624845203   -0.161822121606
 N   -3.400876551077    6.243650246505   -0.228150496288
 N   -5.479929285564    5.228099588313   -0.151009656685
 H   -6.091484013524    4.425446310437   -0.113537285192
 H   -5.891034546906    6.152225379703   -0.201860263216
