34

 N    0.963666118773   -6.616922493104    0.272516214048
 C    1.987966118773   -5.703552493104    0.213926214048
 N    3.313576118773   -5.953722493104    0.218266214048
 C    4.044086118773   -4.850692493104    0.151936214048
 N    3.490746118773   -3.571172493104    0.088036214048
 H    4.115346118773   -2.768962493104    0.034996214048
 N    5.392626118773   -4.938172493104    0.141116214048
 H    6.004176118773   -4.135512493104    0.103646214048
 H    5.803726118773   -5.862302493104    0.191966214048
 C    2.131016118773   -3.281682493104    0.088246214048
 O    1.705606118773   -2.088752493104    0.037526214048
 C    1.342776118773   -4.459002493104    0.152006214048
 N   -0.035783881227   -4.600762493104    0.170626214048
 C   -0.221173881227   -5.921732493104    0.244206214048
 H   -1.186313881227   -6.420322493104    0.278416214048
 H    1.069906118773   -7.627322493104    0.328756214048
NA   -0.820273881227   -2.402262493104    0.021066214048
NA    1.501086118773    0.141457506896    0.056006214048
 C   -1.446399612751    4.803096671826   -0.163733253669
 N   -0.067833554011    4.944850139875   -0.182353070693
 C    0.117552001084    6.265817360379   -0.255929438616
 H    1.082695611298    6.764407007858   -0.290146900394
 N   -1.067290719725    6.961018432161   -0.284242644674
 H   -1.173530637347    7.971412421439   -0.340492237881
 C   -2.091585194891    6.047646676429   -0.225657314815
 C   -2.234634971383    3.625777024253   -0.099976728957
 O   -1.809223969050    2.432845644372   -0.049256881861
 N   -3.594368547196    3.915273834972   -0.099768185163
 H   -4.218965182499    3.113056000978   -0.046735399173
 C   -4.147709839224    5.194796513883   -0.163668801666
 N   -3.417189732455    6.297821915185   -0.229997176347
 N   -5.496242466942    5.282271256993   -0.152856336744
 H   -6.107797194902    4.479617979117   -0.115383965252
 H   -5.907347728284    6.206397048383   -0.203706943276
