34

 N    0.976172384677   -6.658452423858    0.273931944758
 C    2.000472384677   -5.745082423858    0.215341944758
 N    3.326082384677   -5.995252423858    0.219681944758
 C    4.056592384677   -4.892222423858    0.153351944758
 N    3.503252384677   -3.612702423858    0.089451944758
 H    4.127852384677   -2.810492423858    0.036411944758
 N    5.405132384677   -4.979702423858    0.142531944758
 H    6.016682384677   -4.177042423858    0.105061944758
 H    5.816232384677   -5.903832423858    0.193381944758
 C    2.143522384677   -3.323212423858    0.089661944758
 O    1.718112384677   -2.130282423858    0.038941944758
 C    1.355282384677   -4.500532423858    0.153421944758
 N   -0.023277615323   -4.642292423858    0.172041944758
 C   -0.208667615323   -5.963262423858    0.245621944758
 H   -1.173807615323   -6.461852423858    0.279831944758
 H    1.082412384677   -7.668852423858    0.330171944758
NA   -0.807767615323   -2.443792423858    0.022481944758
NA    1.513592384677    0.099927576142    0.057421944758
 C   -1.462712794129    4.857268340506   -0.165579933729
 N   -0.084146735389    4.999021808556   -0.184199750752
 C    0.101238819706    6.319989029060   -0.257776118675
 H    1.066382429920    6.818578676538   -0.291993580454
 N   -1.083603901104    7.015190100842   -0.286089324733
 H   -1.189843818725    8.025584090119   -0.342338917940
 C   -2.107898376270    6.101818345109   -0.227503994874
 C   -2.250948152761    3.679948692934   -0.101823409016
 O   -1.825537150428    2.487017313053   -0.051103561920
 N   -3.610681728574    3.969445503653   -0.101614865222
 H   -4.235278363877    3.167227669658   -0.048582079232
 C   -4.164023020602    5.248968182563   -0.165515481725
 N   -3.433502913833    6.351993583865   -0.231843856407
 N   -5.512555648320    5.336442925673   -0.154703016804
 H   -6.124110376280    4.533789647797   -0.117230645311
 H   -5.923660909662    6.260568717064   -0.205553623335
