34

 N    0.988678650582   -6.699982354612    0.275347675469
 C    2.012978650582   -5.786612354612    0.216757675469
 N    3.338588650582   -6.036782354612    0.221097675469
 C    4.069098650582   -4.933752354612    0.154767675469
 N    3.515758650582   -3.654232354612    0.090867675469
 H    4.140358650582   -2.852022354612    0.037827675469
 N    5.417638650582   -5.021232354612    0.143947675469
 H    6.029188650582   -4.218572354612    0.106477675469
 H    5.828738650582   -5.945362354612    0.194797675469
 C    2.156028650582   -3.364742354612    0.091077675469
 O    1.730618650582   -2.171812354612    0.040357675469
 C    1.367788650582   -4.542062354612    0.154837675469
 N   -0.010771349418   -4.683822354612    0.173457675469
 C   -0.196161349418   -6.004792354612    0.247037675469
 H   -1.161301349418   -6.503382354612    0.281247675469
 H    1.094918650582   -7.710382354612    0.331587675469
NA   -0.795261349418   -2.485322354612    0.023897675469
NA    1.526098650582    0.058397645388    0.058837675469
 C   -1.479025975507    4.911440009186   -0.167426613788
 N   -0.100459916767    5.053193477236   -0.186046430811
 C    0.084925638328    6.374160697740   -0.259622798734
 H    1.050069248542    6.872750345219   -0.293840260513
 N   -1.099917082482    7.069361769522   -0.287936004792
 H   -1.206157000103    8.079755758800   -0.344185597999
 C   -2.124211557648    6.155990013790   -0.229350674933
 C   -2.267261334139    3.734120361614   -0.103670089075
 O   -1.841850331806    2.541188981733   -0.052950241979
 N   -3.626994909952    4.023617172333   -0.103461545281
 H   -4.251591545255    3.221399338339   -0.050428759292
 C   -4.180336201980    5.303139851244   -0.167362161784
 N   -3.449816095211    6.406165252546   -0.233690536466
 N   -5.528868829698    5.390614594354   -0.156549696863
 H   -6.140423557658    4.587961316478   -0.119077325370
 H   -5.939974091040    6.314740385744   -0.207400303394
