34

 N    1.001184916486   -6.741512285366    0.276763406179
 C    2.025484916486   -5.828142285366    0.218173406179
 N    3.351094916486   -6.078312285366    0.222513406179
 C    4.081604916486   -4.975282285366    0.156183406179
 N    3.528264916486   -3.695762285366    0.092283406179
 H    4.152864916486   -2.893552285366    0.039243406179
 N    5.430144916486   -5.062762285366    0.145363406179
 H    6.041694916486   -4.260102285366    0.107893406179
 H    5.841244916486   -5.986892285366    0.196213406179
 C    2.168534916486   -3.406272285366    0.092493406179
 O    1.743124916486   -2.213342285366    0.041773406179
 C    1.380294916486   -4.583592285366    0.156253406179
 N    0.001734916486   -4.725352285366    0.174873406179
 C   -0.183655083514   -6.046322285366    0.248453406179
 H   -1.148795083514   -6.544912285366    0.282663406179
 H    1.107424916486   -7.751912285366    0.333003406179
NA   -0.782755083514   -2.526852285366    0.025313406179
NA    1.538604916486    0.016867714634    0.060253406179
 C   -1.495339156886    4.965611677867   -0.169273293847
 N   -0.116773098146    5.107365145917   -0.187893110870
 C    0.068612456950    6.428332366420   -0.261469478794
 H    1.033756067164    6.926922013899   -0.295686940572
 N   -1.116230263860    7.123533438203   -0.289782684852
 H   -1.222470181481    8.133927427480   -0.346032278058
 C   -2.140524739026    6.210161682470   -0.231197354992
 C   -2.283574515517    3.788292030295   -0.105516769134
 O   -1.858163513184    2.595360650414   -0.054796922038
 N   -3.643308091330    4.077788841013   -0.105308225340
 H   -4.267904726633    3.275571007019   -0.052275439351
 C   -4.196649383358    5.357311519924   -0.169208841843
 N   -3.466129276589    6.460336921226   -0.235537216525
 N   -5.545182011076    5.444786263034   -0.158396376922
 H   -6.156736739036    4.642132985158   -0.120924005429
 H   -5.956287272418    6.368912054424   -0.209246983453
