34

 N    1.151260107341   -7.239871454414    0.293752174704
 C    2.175560107341   -6.326501454414    0.235162174704
 N    3.501170107341   -6.576671454414    0.239502174704
 C    4.231680107341   -5.473641454414    0.173172174704
 N    3.678340107341   -4.194121454414    0.109272174704
 H    4.302940107341   -3.391911454414    0.056232174704
 N    5.580220107341   -5.561121454414    0.162352174704
 H    6.191770107341   -4.758461454414    0.124882174704
 H    5.991320107341   -6.485251454414    0.213202174704
 C    2.318610107341   -3.904631454414    0.109482174704
 O    1.893200107341   -2.711701454414    0.058762174704
 C    1.530370107341   -5.081951454414    0.173242174704
 N    0.151810107341   -5.223711454414    0.191862174704
 C   -0.033579892659   -6.544681454414    0.265442174704
 H   -0.998719892659   -7.043271454414    0.299652174704
 H    1.257500107341   -8.250271454414    0.349992174704
NA   -0.632679892659   -3.025211454414    0.042302174704
NA    1.688680107341   -0.481491454414    0.077242174704
 C   -1.691097333423    5.615671702031   -0.191433454558
 N   -0.312531274683    5.757425170081   -0.210053271581
 C   -0.127145719587    7.078392390585   -0.283629639504
 H    0.837997890626    7.576982038063   -0.317847101283
 N   -1.311988440397    7.773593462367   -0.311942845562
 H   -1.418228358018    8.783987451644   -0.368192438769
 C   -2.336282915563    6.860221706635   -0.253357515703
 C   -2.479332692054    4.438352054459   -0.127676929845
 O   -2.053921689721    3.245420674578   -0.076957082749
 N   -3.839066267867    4.727848865178   -0.127468386051
 H   -4.463662903170    3.925631031184   -0.074435600062
 C   -4.392407559896    6.007371544088   -0.191369002554
 N   -3.661887453126    7.110396945391   -0.257697377236
 N   -5.740940187614    6.094846287199   -0.180556537633
 H   -6.352494915573    5.292193009323   -0.143084166140
 H   -6.152045448955    7.018972078589   -0.231407144164
