34

 N    1.226297702768   -7.489051038938    0.302246558967
 C    2.250597702768   -6.575681038938    0.243656558967
 N    3.576207702768   -6.825851038938    0.247996558967
 C    4.306717702768   -5.722821038938    0.181666558967
 N    3.753377702768   -4.443301038938    0.117766558967
 H    4.377977702768   -3.641091038938    0.064726558967
 N    5.655257702768   -5.810301038938    0.170846558967
 H    6.266807702768   -5.007641038938    0.133376558967
 H    6.066357702768   -6.734431038938    0.221696558967
 C    2.393647702768   -4.153811038938    0.117976558967
 O    1.968237702768   -2.960881038938    0.067256558967
 C    1.605407702768   -5.331131038938    0.181736558967
 N    0.226847702768   -5.472891038938    0.200356558967
 C    0.041457702768   -6.793861038938    0.273936558967
 H   -0.923682297232   -7.292451038938    0.308146558967
 H    1.332537702768   -8.499451038938    0.358486558967
NA   -0.557642297232   -3.274391038938    0.050796558967
NA    1.763717702768   -0.730671038938    0.085736558967
 C   -1.788976421691    5.940701714113   -0.202513534913
 N   -0.410410362951    6.082455182163   -0.221133351937
 C   -0.225024807856    7.403422402667   -0.294709719860
 H    0.740118802358    7.902012050146   -0.328927181638
 N   -1.409867528666    8.098623474449   -0.323022925918
 H   -1.516107446287    9.109017463727   -0.379272519124
 C   -2.434162003831    7.185251718717   -0.264437596059
 C   -2.577211780323    4.763382066541   -0.138757010200
 O   -2.151800777990    3.570450686660   -0.088037163104
 N   -3.936945356136    5.052878877260   -0.138548466406
 H   -4.561541991439    4.250661043266   -0.085515680417
 C   -4.490286648164    6.332401556171   -0.202449082909
 N   -3.759766541395    7.435426957473   -0.268777457591
 N   -5.838819275882    6.419876299281   -0.191636617988
 H   -6.450374003842    5.617223021405   -0.154164246495
 H   -6.249924537224    7.344002090671   -0.242487224519
