34

 N    1.263816500482   -7.613640831200    0.306493751098
 C    2.288116500482   -6.700270831200    0.247903751098
 N    3.613726500482   -6.950440831200    0.252243751098
 C    4.344236500482   -5.847410831200    0.185913751098
 N    3.790896500482   -4.567890831200    0.122013751098
 H    4.415496500482   -3.765680831200    0.068973751098
 N    5.692776500482   -5.934890831200    0.175093751098
 H    6.304326500482   -5.132230831200    0.137623751098
 H    6.103876500482   -6.859020831200    0.225943751098
 C    2.431166500482   -4.278400831200    0.122223751098
 O    2.005756500482   -3.085470831200    0.071503751098
 C    1.642926500482   -5.455720831200    0.185983751098
 N    0.264366500482   -5.597480831200    0.204603751098
 C    0.078976500482   -6.918450831200    0.278183751098
 H   -0.886163499518   -7.417040831200    0.312393751098
 H    1.370056500482   -8.624040831200    0.362733751098
NA   -0.520123499518   -3.398980831200    0.055043751098
NA    1.801236500482   -0.855260831200    0.089983751098
 C   -1.837915965826    6.103216720155   -0.208053575091
 N   -0.459349907086    6.244970188204   -0.226673392114
 C   -0.273964351990    7.565937408708   -0.300249760037
 H    0.691179258224    8.064527056187   -0.334467221816
 N   -1.458807072800    8.261138480490   -0.328562966096
 H   -1.565046990421    9.271532469768   -0.384812559302
 C   -2.483101547966    7.347766724758   -0.269977636236
 C   -2.626151324457    4.925897072582   -0.144297050378
 O   -2.200740322124    3.732965692701   -0.093577203282
 N   -3.985884900270    5.215393883301   -0.144088506584
 H   -4.610481535573    4.413176049307   -0.091055720595
 C   -4.539226192298    6.494916562212   -0.207989123087
 N   -3.808706085529    7.597941963514   -0.274317497769
 N   -5.887758820017    6.582391305322   -0.197176658166
 H   -6.499313547976    5.779738027446   -0.159704286673
 H   -6.298864081358    7.506517096712   -0.248027264697
