34

 N    1.276322766386   -7.655170761954    0.307909481808
 C    2.300622766386   -6.741800761954    0.249319481808
 N    3.626232766386   -6.991970761954    0.253659481808
 C    4.356742766386   -5.888940761954    0.187329481808
 N    3.803402766386   -4.609420761954    0.123429481808
 H    4.428002766386   -3.807210761954    0.070389481808
 N    5.705282766386   -5.976420761954    0.176509481808
 H    6.316832766386   -5.173760761954    0.139039481808
 H    6.116382766386   -6.900550761954    0.227359481808
 C    2.443672766386   -4.319930761954    0.123639481808
 O    2.018262766386   -3.127000761954    0.072919481808
 C    1.655432766386   -5.497250761954    0.187399481808
 N    0.276872766386   -5.639010761954    0.206019481808
 C    0.091482766386   -6.959980761954    0.279599481808
 H   -0.873657233614   -7.458570761954    0.313809481808
 H    1.382562766386   -8.665570761954    0.364149481808
NA   -0.507617233614   -3.440510761954    0.056459481808
NA    1.813742766386   -0.896790761954    0.091399481808
 C   -1.854229147204    6.157388388835   -0.209900255150
 N   -0.475663088464    6.299141856885   -0.228520072174
 C   -0.290277533368    7.620109077388   -0.302096440097
 H    0.674866076845    8.118698724867   -0.336313901875
 N   -1.475120254178    8.315310149171   -0.330409646155
 H   -1.581360171799    9.325704138448   -0.386659239361
 C   -2.499414729344    7.401938393438   -0.271824316295
 C   -2.642464505835    4.980068741263   -0.146143730437
 O   -2.217053503502    3.787137361382   -0.095423883341
 N   -4.002198081648    5.269565551981   -0.145935186643
 H   -4.626794716951    4.467347717987   -0.092902400654
 C   -4.555539373677    6.549088230892   -0.209835803146
 N   -3.825019266907    7.652113632194   -0.276164177828
 N   -5.904072001395    6.636562974002   -0.199023338225
 H   -6.515626729354    5.833909696126   -0.161550966732
 H   -6.315177262736    7.560688765392   -0.249873944756
