34

 N    1.301335298195   -7.738230623462    0.310740943229
 C    2.325635298195   -6.824860623462    0.252150943229
 N    3.651245298195   -7.075030623462    0.256490943229
 C    4.381755298195   -5.972000623462    0.190160943229
 N    3.828415298195   -4.692480623462    0.126260943229
 H    4.453015298195   -3.890270623462    0.073220943229
 N    5.730295298195   -6.059480623462    0.179340943229
 H    6.341845298195   -5.256820623462    0.141870943229
 H    6.141395298195   -6.983610623462    0.230190943229
 C    2.468685298195   -4.402990623462    0.126470943229
 O    2.043275298195   -3.210060623462    0.075750943229
 C    1.680445298195   -5.580310623462    0.190230943229
 N    0.301885298195   -5.722070623462    0.208850943229
 C    0.116495298195   -7.043040623462    0.282430943229
 H   -0.848644701805   -7.541630623462    0.316640943229
 H    1.407575298195   -8.748630623462    0.366980943229
NA   -0.482604701805   -3.523570623462    0.059290943229
NA    1.838755298195   -0.979850623462    0.094230943229
 C   -1.886855509960    6.265731726196   -0.213593615269
 N   -0.508289451220    6.407485194245   -0.232213432292
 C   -0.322903896125    7.728452414749   -0.305789800215
 H    0.642239714089    8.227042062228   -0.340007261994
 N   -1.507746616934    8.423653486531   -0.334103006273
 H   -1.613986534556    9.434047475809   -0.390352599480
 C   -2.532041092100    7.510281730799   -0.275517676414
 C   -2.675090868591    5.088412078623   -0.149837090556
 O   -2.249679866259    3.895480698742   -0.099117243460
 N   -4.034824444404    5.377908889342   -0.149628546762
 H   -4.659421079708    4.575691055348   -0.096595760772
 C   -4.588165736433    6.657431568253   -0.213529163265
 N   -3.857645629663    7.760456969555   -0.279857537947
 N   -5.936698364151    6.744906311363   -0.202716698344
 H   -6.548253092110    5.942253033487   -0.165244326851
 H   -6.347803625493    7.669032102753   -0.253567304875
