34

 N    1.326347830005   -7.821290484970    0.313572404650
 C    2.350647830005   -6.907920484970    0.254982404650
 N    3.676257830005   -7.158090484970    0.259322404650
 C    4.406767830005   -6.055060484970    0.192992404650
 N    3.853427830005   -4.775540484970    0.129092404650
 H    4.478027830005   -3.973330484970    0.076052404650
 N    5.755307830005   -6.142540484970    0.182172404650
 H    6.366857830005   -5.339880484970    0.144702404650
 H    6.166407830005   -7.066670484970    0.233022404650
 C    2.493697830005   -4.486050484970    0.129302404650
 O    2.068287830005   -3.293120484970    0.078582404650
 C    1.705457830005   -5.663370484970    0.193062404650
 N    0.326897830005   -5.805130484970    0.211682404650
 C    0.141507830005   -7.126100484970    0.285262404650
 H   -0.823632169995   -7.624690484970    0.319472404650
 H    1.432587830005   -8.831690484970    0.369812404650
NA   -0.457592169995   -3.606630484970    0.062122404650
NA    1.863767830005   -1.062910484970    0.097062404650
 C   -1.919481872716    6.374075063556   -0.217286975387
 N   -0.540915813976    6.515828531606   -0.235906792411
 C   -0.355530258881    7.836795752110   -0.309483160334
 H    0.609613351333    8.335385399589   -0.343700622112
 N   -1.540372979690    8.531996823892   -0.337796366392
 H   -1.646612897312    9.542390813170   -0.394045959598
 C   -2.564667454856    7.618625068160   -0.279211036532
 C   -2.707717231348    5.196755415984   -0.153530450674
 O   -2.282306229015    4.003824036103   -0.102810603578
 N   -4.067450807161    5.486252226703   -0.153321906880
 H   -4.692047442464    4.684034392709   -0.100289120891
 C   -4.620792099189    6.765774905614   -0.217222523383
 N   -3.890271992420    7.868800306916   -0.283550898065
 N   -5.969324726907    6.853249648724   -0.206410058462
 H   -6.580879454867    6.050596370848   -0.168937686969
 H   -6.380429988249    7.777375440114   -0.257260664993
