34

 N    1.351360361814   -7.904350346478    0.316403866071
 C    2.375660361814   -6.990980346478    0.257813866071
 N    3.701270361814   -7.241150346478    0.262153866071
 C    4.431780361814   -6.138120346478    0.195823866071
 N    3.878440361814   -4.858600346478    0.131923866071
 H    4.503040361814   -4.056390346478    0.078883866071
 N    5.780320361814   -6.225600346478    0.185003866071
 H    6.391870361814   -5.422940346478    0.147533866071
 H    6.191420361814   -7.149730346478    0.235853866071
 C    2.518710361814   -4.569110346478    0.132133866071
 O    2.093300361814   -3.376180346478    0.081413866071
 C    1.730470361814   -5.746430346478    0.195893866071
 N    0.351910361814   -5.888190346478    0.214513866071
 C    0.166520361814   -7.209160346478    0.288093866071
 H   -0.798619638186   -7.707750346478    0.322303866071
 H    1.457600361814   -8.914750346478    0.372643866071
NA   -0.432579638186   -3.689690346478    0.064953866071
NA    1.888780361814   -1.145970346478    0.099893866071
 C   -1.952108235472    6.482418400917   -0.220980335506
 N   -0.573542176732    6.624171868967   -0.239600152529
 C   -0.388156621637    7.945139089471   -0.313176520452
 H    0.576986988577    8.443728736949   -0.347393982231
 N   -1.572999342446    8.640340161253   -0.341489726510
 H   -1.679239260068    9.650734150530   -0.397739319717
 C   -2.597293817612    7.726968405520   -0.282904396651
 C   -2.740343594104    5.305098753345   -0.157223810793
 O   -2.314932591771    4.112167373464   -0.106503963697
 N   -4.100077169917    5.594595564064   -0.157015266999
 H   -4.724673805220    4.792377730070   -0.103982481009
 C   -4.653418461945    6.874118242974   -0.220915883502
 N   -3.922898355176    7.977143644276   -0.287244258184
 N   -6.001951089663    6.961592986084   -0.210103418581
 H   -6.613505817623    6.158939708209   -0.172631047088
 H   -6.413056351005    7.885718777475   -0.260954025112
