34

 N    1.401385425432   -8.070470069493    0.322066788912
 C    2.425685425432   -7.157100069493    0.263476788912
 N    3.751295425432   -7.407270069493    0.267816788912
 C    4.481805425432   -6.304240069493    0.201486788912
 N    3.928465425432   -5.024720069493    0.137586788912
 H    4.553065425432   -4.222510069493    0.084546788912
 N    5.830345425432   -6.391720069493    0.190666788912
 H    6.441895425432   -5.589060069493    0.153196788912
 H    6.241445425432   -7.315850069493    0.241516788912
 C    2.568735425432   -4.735230069493    0.137796788912
 O    2.143325425432   -3.542300069493    0.087076788912
 C    1.780495425432   -5.912550069493    0.201556788912
 N    0.401935425432   -6.054310069493    0.220176788912
 C    0.216545425432   -7.375280069493    0.293756788912
 H   -0.748594574568   -7.873870069493    0.327966788912
 H    1.507625425432   -9.080870069493    0.378306788912
NA   -0.382554574568   -3.855810069493    0.070616788912
NA    1.938805425432   -1.312090069493    0.105556788912
 C   -2.017360960985    6.699105075639   -0.228367055743
 N   -0.638794902245    6.840858543688   -0.246986872766
 C   -0.453409347149    8.161825764192   -0.320563240689
 H    0.511734263064    8.660415411671   -0.354780702468
 N   -1.638252067959    8.857026835974   -0.348876446747
 H   -1.744491985580    9.867420825252   -0.405126039954
 C   -2.662546543125    7.943655080242   -0.290291116888
 C   -2.805596319616    5.521785428066   -0.164610531030
 O   -2.380185317283    4.328854048185   -0.113890683934
 N   -4.165329895429    5.811282238785   -0.164401987236
 H   -4.789926530732    5.009064404791   -0.111369201246
 C   -4.718671187458    7.090804917696   -0.228302603739
 N   -3.988151080688    8.193830318998   -0.294630978420
 N   -6.067203815176    7.178279660806   -0.217490138818
 H   -6.678758543135    6.375626382930   -0.180017767325
 H   -6.478309076517    8.102405452196   -0.268340745349
