16

 N   -2.010810960440    0.544992336466   -0.322215381087
 C   -0.778685228173   -0.085297943542   -0.321260420779
 N   -0.508544292047   -1.406183418510   -0.324724609726
 C    0.819584876416   -1.624377311260   -0.309157181063
 H    1.133393159386   -2.671056043750   -0.305777610372
 N    1.831934319457   -0.716396354119   -0.295185910788
 C    1.519717575550    0.594424729130   -0.299832314688
 N    2.527344530352    1.518923366435   -0.341654151619
 H    3.458796067739    1.188393257683   -0.119196217486
 H    2.294607024325    2.478894121474   -0.116843906179
 C    0.154216734676    0.971118582997   -0.308603402403
 N   -0.469312576515    2.210084283627   -0.298725193385
 C   -1.769238063672    1.902004895266   -0.307180046543
 H   -2.579291592459    2.628585696368   -0.303131908680
 H   -2.914600637610    0.084735212632   -0.329818437020
 K   -0.511853815560   -1.410531914627    1.075264725103
