16

 N   -2.010599239890    0.545270523337   -0.411777068974
 C   -0.778473507623   -0.085019756671   -0.410822108666
 N   -0.508332571497   -1.405905231639   -0.414286297613
 C    0.819796596966   -1.624099124389   -0.398718868950
 H    1.133604879936   -2.670777856879   -0.395339298259
 N    1.832146040007   -0.716118167248   -0.384747598675
 C    1.519929296100    0.594702916001   -0.389394002575
 N    2.527556250902    1.519201553306   -0.431215839506
 H    3.459007788289    1.188671444554   -0.208757905373
 H    2.294818744875    2.479172308345   -0.206405594066
 C    0.154428455226    0.971396769868   -0.398165090290
 N   -0.469100855965    2.210362470498   -0.388286881272
 C   -1.769026343122    1.902283082137   -0.396741734430
 H   -2.579079871909    2.628863883239   -0.392693596567
 H   -2.914388917060    0.085013399503   -0.419380124907
 K   -0.512587673157   -1.411496155219    1.385699990024
