16

 N   -2.006258968616    0.550973354186   -2.247791670667
 C   -0.774133236349   -0.079316925822   -2.246836710359
 N   -0.503992300223   -1.400202400790   -2.250300899306
 C    0.824136868240   -1.618396293540   -2.234733470643
 H    1.137945151210   -2.665075026030   -2.231353899952
 N    1.836486311281   -0.710415336399   -2.220762200368
 C    1.524269567374    0.600405746850   -2.225408604268
 N    2.531896522176    1.524904384155   -2.267230441199
 H    3.463348059563    1.194374275403   -2.044772507066
 H    2.299159016149    2.484875139194   -2.042420195759
 C    0.158768726500    0.977099600717   -2.234179691983
 N   -0.464760584691    2.216065301347   -2.224301482965
 C   -1.764686071848    1.907985912986   -2.232756336123
 H   -2.574739600635    2.634566714088   -2.228708198260
 H   -2.910048645786    0.090716230352   -2.255394726600
 K   -0.527631753887   -1.431263087344    7.749622920903
