16

 N   -2.010440449478    0.545479163490   -0.478948334890
 C   -0.778314717211   -0.084811116518   -0.477993374582
 N   -0.508173781085   -1.405696591486   -0.481457563529
 C    0.819955387378   -1.623890484236   -0.465890134866
 H    1.133763670348   -2.670569216726   -0.462510564175
 N    1.832304830419   -0.715909527095   -0.451918864591
 C    1.520088086512    0.594911556154   -0.456565268491
 N    2.527715041314    1.519410193459   -0.498387105422
 H    3.459166578701    1.188880084707   -0.275929171289
 H    2.294977535287    2.479380948498   -0.273576859982
 C    0.154587245638    0.971605410021   -0.465336356206
 N   -0.468942065553    2.210571110651   -0.455458147188
 C   -1.768867552710    1.902491722290   -0.463913000346
 H   -2.578921081497    2.629072523392   -0.459864862483
 H   -2.914230126648    0.085222039656   -0.486551390823
 K   -0.513138066354   -1.412219335662    1.618526438715
