16

 N   -2.010228728928    0.545757350361   -0.568510022777
 C   -0.778102996661   -0.084532929647   -0.567555062469
 N   -0.507962060535   -1.405418404615   -0.571019251416
 C    0.820167107928   -1.623612297365   -0.555451822753
 H    1.133975390898   -2.670291029855   -0.552072252062
 N    1.832516550969   -0.715631340224   -0.541480552478
 C    1.520299807062    0.595189743025   -0.546126956378
 N    2.527926761864    1.519688380330   -0.587948793309
 H    3.459378299251    1.189158271578   -0.365490859176
 H    2.295189255837    2.479659135369   -0.363138547869
 C    0.154798966188    0.971883596892   -0.554898044093
 N   -0.468730345003    2.210849297522   -0.545019835075
 C   -1.768655832160    1.902769909161   -0.553474688233
 H   -2.578709360947    2.629350710263   -0.549426550370
 H   -2.914018406098    0.085500226527   -0.576113078710
 K   -0.513871923951   -1.413183576254    1.928961703636
