16

 N   -2.010017008378    0.546035537231   -0.658071710665
 C   -0.777891276111   -0.084254742777   -0.657116750357
 N   -0.507750339985   -1.405140217745   -0.660580939304
 C    0.820378828478   -1.623334110495   -0.645013510641
 H    1.134187111448   -2.670012842985   -0.641633939950
 N    1.832728271519   -0.715353153354   -0.631042240366
 C    1.520511527612    0.595467929895   -0.635688644266
 N    2.528138482414    1.519966567200   -0.677510481197
 H    3.459590019801    1.189436458448   -0.455052547064
 H    2.295400976387    2.479937322239   -0.452700235757
 C    0.155010686738    0.972161783762   -0.644459731981
 N   -0.468518624453    2.211127484392   -0.634581522963
 C   -1.768444111610    1.903048096031   -0.643036376121
 H   -2.578497640397    2.629628897133   -0.638988238258
 H   -2.913806685548    0.085778413397   -0.665674766598
 K   -0.514605781547   -1.414147816845    2.239396968557
