16

 N   -2.009699427553    0.546452817537   -0.792414242496
 C   -0.777573695286   -0.083837462471   -0.791459282188
 N   -0.507432759160   -1.404722937439   -0.794923471135
 C    0.820696409303   -1.622916830189   -0.779356042472
 H    1.134504692273   -2.669595562679   -0.775976471781
 N    1.833045852344   -0.714935873048   -0.765384772197
 C    1.520829108437    0.595885210201   -0.770031176097
 N    2.528456063239    1.520383847506   -0.811853013028
 H    3.459907600626    1.189853738754   -0.589395078895
 H    2.295718557212    2.480354602545   -0.587042767588
 C    0.155328267563    0.972579064068   -0.778802263812
 N   -0.468201043628    2.211544764698   -0.768924054794
 C   -1.768126530785    1.903465376337   -0.777378907952
 H   -2.578180059572    2.630046177439   -0.773330770089
 H   -2.913489104723    0.086195693703   -0.800017298429
 K   -0.515706567942   -1.415594177733    2.705049865938
