16

 N   -2.009223056315    0.547078737996   -0.993928040243
 C   -0.777097324048   -0.083211542012   -0.992973079935
 N   -0.506956387922   -1.404097016980   -0.996437268882
 C    0.821172780541   -1.622290909730   -0.980869840219
 H    1.134981063511   -2.668969642220   -0.977490269528
 N    1.833522223582   -0.714309952589   -0.966898569944
 C    1.521305479675    0.596511130660   -0.971544973844
 N    2.528932434477    1.521009767965   -1.013366810775
 H    3.460383971864    1.190479659213   -0.790908876642
 H    2.296194928450    2.480980523004   -0.788556565335
 C    0.155804638801    0.973204984527   -0.980316061559
 N   -0.467724672390    2.212170685157   -0.970437852541
 C   -1.767650159547    1.904091296796   -0.978892705699
 H   -2.577703688334    2.630672097898   -0.974844567836
 H   -2.913012733485    0.086821614162   -1.001531096176
 K   -0.517357747535   -1.417763719063    3.403529212010
