16

 N   -2.009117196040    0.547217831432   -1.038708884186
 C   -0.776991463773   -0.083072448576   -1.037753923878
 N   -0.506850527647   -1.403957923544   -1.041218112825
 C    0.821278640816   -1.622151816294   -1.025650684162
 H    1.135086923786   -2.668830548784   -1.022271113471
 N    1.833628083857   -0.714170859153   -1.011679413887
 C    1.521411339950    0.596650224096   -1.016325817787
 N    2.529038294752    1.521148861401   -1.058147654718
 H    3.460489832139    1.190618752649   -0.835689720585
 H    2.296300788725    2.481119616440   -0.833337409278
 C    0.155910499076    0.973344077963   -1.025096905502
 N   -0.467618812115    2.212309778593   -1.015218696484
 C   -1.767544299272    1.904230390232   -1.023673549642
 H   -2.577597828059    2.630811191334   -1.019625411779
 H   -2.912906873210    0.086960707598   -1.046311940119
 K   -0.517724676333   -1.418245839359    3.558746844471
