16

 N   -2.009064265903    0.547287378149   -1.061099306158
 C   -0.776938533636   -0.083002901859   -1.060144345850
 N   -0.506797597510   -1.403888376827   -1.063608534797
 C    0.821331570953   -1.622082269577   -1.048041106134
 H    1.135139853923   -2.668761002067   -1.044661535443
 N    1.833681013994   -0.714101312436   -1.034069835859
 C    1.521464270087    0.596719770813   -1.038716239759
 N    2.529091224889    1.521218408118   -1.080538076690
 H    3.460542762276    1.190688299366   -0.858080142557
 H    2.296353718862    2.481189163157   -0.855727831250
 C    0.155963429213    0.973413624680   -1.047487327474
 N   -0.467565881978    2.212379325310   -1.037609118456
 C   -1.767491369135    1.904299936949   -1.046063971614
 H   -2.577544897922    2.630880738051   -1.042015833751
 H   -2.912853943073    0.087030254315   -1.068702362091
 K   -0.517908140732   -1.418486899507    3.636355660701
