16

 N   -2.008852545353    0.547565565020   -1.150660994046
 C   -0.776726813086   -0.082724714988   -1.149706033738
 N   -0.506585876960   -1.403610189956   -1.153170222685
 C    0.821543291503   -1.621804082706   -1.137602794022
 H    1.135351574473   -2.668482815196   -1.134223223331
 N    1.833892734544   -0.713823125565   -1.123631523747
 C    1.521675990637    0.596997957684   -1.128277927647
 N    2.529302945439    1.521496594989   -1.170099764578
 H    3.460754482826    1.190966486237   -0.947641830445
 H    2.296565439412    2.481467350028   -0.945289519138
 C    0.156175149763    0.973691811551   -1.137049015362
 N   -0.467354161428    2.212657512181   -1.127170806344
 C   -1.767279648585    1.904578123820   -1.135625659502
 H   -2.577333177372    2.631158924922   -1.131577521639
 H   -2.912642222523    0.087308441186   -1.158264049979
 K   -0.518641998329   -1.419451140098    3.946790925622
