16

 N   -2.008799615215    0.547635111738   -1.173051416018
 C   -0.776673882948   -0.082655168270   -1.172096455710
 N   -0.506532946822   -1.403540643238   -1.175560644657
 C    0.821596221641   -1.621734535988   -1.159993215994
 H    1.135404504611   -2.668413268478   -1.156613645303
 N    1.833945664682   -0.713753578847   -1.146021945719
 C    1.521728920775    0.597067504402   -1.150668349619
 N    2.529355875577    1.521566141707   -1.192490186550
 H    3.460807412964    1.191036032955   -0.970032252417
 H    2.296618369550    2.481536896746   -0.967679941110
 C    0.156228079901    0.973761358269   -1.159439437334
 N   -0.467301231290    2.212727058899   -1.149561228316
 C   -1.767226718447    1.904647670538   -1.158016081474
 H   -2.577280247234    2.631228471640   -1.153967943611
 H   -2.912589292385    0.087377987904   -1.180654471951
 K   -0.518825462728   -1.419692200246    4.024399741852
