16

 N   -2.008746685078    0.547704658455   -1.195441837990
 C   -0.776620952811   -0.082585621553   -1.194486877682
 N   -0.506480016685   -1.403471096521   -1.197951066629
 C    0.821649151778   -1.621664989271   -1.182383637966
 H    1.135457434748   -2.668343721761   -1.179004067275
 N    1.833998594819   -0.713684032130   -1.168412367691
 C    1.521781850912    0.597137051119   -1.173058771591
 N    2.529408805714    1.521635688424   -1.214880608522
 H    3.460860343101    1.191105579672   -0.992422674389
 H    2.296671299687    2.481606443463   -0.990070363082
 C    0.156281010038    0.973830904986   -1.181829859306
 N   -0.467248301153    2.212796605616   -1.171951650288
 C   -1.767173788310    1.904717217255   -1.180406503446
 H   -2.577227317097    2.631298018357   -1.176358365583
 H   -2.912536362248    0.087447534621   -1.203044893923
 K   -0.519008927127   -1.419933260394    4.102008558082
