16

 N   -2.008640824803    0.547843751891   -1.240222681933
 C   -0.776515092536   -0.082446528117   -1.239267721625
 N   -0.506374156410   -1.403332003085   -1.242731910572
 C    0.821755012053   -1.621525895835   -1.227164481909
 H    1.135563295023   -2.668204628325   -1.223784911218
 N    1.834104455094   -0.713544938694   -1.213193211634
 C    1.521887711187    0.597276144555   -1.217839615534
 N    2.529514665989    1.521774781860   -1.259661452465
 H    3.460966203376    1.191244673108   -1.037203518332
 H    2.296777159962    2.481745536899   -1.034851207025
 C    0.156386870313    0.973969998422   -1.226610703249
 N   -0.467142440878    2.212935699052   -1.216732494231
 C   -1.767067928035    1.904856310691   -1.225187347389
 H   -2.577121456822    2.631437111793   -1.221139209526
 H   -2.912430501973    0.087586628057   -1.247825737866
 K   -0.519375855925   -1.420415380690    4.257226190543
