16

 N   -2.008534964528    0.547982845326   -1.285003525877
 C   -0.776409232261   -0.082307434682   -1.284048565569
 N   -0.506268296135   -1.403192909650   -1.287512754516
 C    0.821860872328   -1.621386802400   -1.271945325853
 H    1.135669155298   -2.668065534890   -1.268565755162
 N    1.834210315369   -0.713405845259   -1.257974055578
 C    1.521993571462    0.597415237990   -1.262620459478
 N    2.529620526264    1.521913875295   -1.304442296409
 H    3.461072063651    1.191383766543   -1.081984362276
 H    2.296883020237    2.481884630334   -1.079632050969
 C    0.156492730588    0.974109091857   -1.271391547193
 N   -0.467036580603    2.213074792487   -1.261513338175
 C   -1.766962067760    1.904995404126   -1.269968191333
 H   -2.577015596547    2.631576205228   -1.265920053470
 H   -2.912324641698    0.087725721492   -1.292606581810
 K   -0.519742784724   -1.420897500986    4.412443823003
