16

 N   -2.008323243978    0.548261032197   -1.374565213764
 C   -0.776197511711   -0.082029247811   -1.373610253456
 N   -0.506056575585   -1.402914722779   -1.377074442403
 C    0.822072592878   -1.621108615529   -1.361507013740
 H    1.135880875848   -2.667787348019   -1.358127443049
 N    1.834422035919   -0.713127658388   -1.347535743465
 C    1.522205292012    0.597693424861   -1.352182147365
 N    2.529832246814    1.522192062166   -1.394003984296
 H    3.461283784201    1.191661953414   -1.171546050163
 H    2.297094740787    2.482162817205   -1.169193738856
 C    0.156704451138    0.974387278728   -1.360953235080
 N   -0.466824860053    2.213352979358   -1.351075026062
 C   -1.766750347210    1.905273590997   -1.359529879220
 H   -2.576803875997    2.631854392099   -1.355481741357
 H   -2.912112921148    0.088003908363   -1.382168269697
 K   -0.520476642320   -1.421861741577    4.722879087924
