16

 N   -2.008164453566    0.548469672350   -1.441736479680
 C   -0.776038721299   -0.081820607658   -1.440781519372
 N   -0.505897785173   -1.402706082626   -1.444245708319
 C    0.822231383290   -1.620899975376   -1.428678279656
 H    1.136039666260   -2.667578707866   -1.425298708965
 N    1.834580826331   -0.712919018235   -1.414707009381
 C    1.522364082424    0.597902065014   -1.419353413281
 N    2.529991037226    1.522400702319   -1.461175250212
 H    3.461442574613    1.191870593567   -1.238717316079
 H    2.297253531199    2.482371457358   -1.236365004772
 C    0.156863241550    0.974595918881   -1.428124500996
 N   -0.466666069641    2.213561619511   -1.418246291978
 C   -1.766591556798    1.905482231150   -1.426701145136
 H   -2.576645085585    2.632063032252   -1.422653007273
 H   -2.911954130736    0.088212548516   -1.449339535613
 K   -0.521027035518   -1.422584922021    4.955705536615
