16

 N   -2.008058593291    0.548608765785   -1.486517323624
 C   -0.775932861024   -0.081681514223   -1.485562363316
 N   -0.505791924898   -1.402566989191   -1.489026552263
 C    0.822337243565   -1.620760881941   -1.473459123600
 H    1.136145526535   -2.667439614431   -1.470079552909
 N    1.834686686606   -0.712779924800   -1.459487853325
 C    1.522469942699    0.598041158449   -1.464134257225
 N    2.530096897501    1.522539795754   -1.505956094156
 H    3.461548434888    1.192009687002   -1.283498160023
 H    2.297359391474    2.482510550793   -1.281145848716
 C    0.156969101825    0.974735012316   -1.472905344940
 N   -0.466560209366    2.213700712946   -1.463027135922
 C   -1.766485696523    1.905621324585   -1.471481989080
 H   -2.576539225310    2.632202125687   -1.467433851217
 H   -2.911848270461    0.088351641951   -1.494120379557
 K   -0.521393964316   -1.423067042316    5.110923169075
