16

 N   -2.008005663153    0.548678312503   -1.508907745596
 C   -0.775879930886   -0.081611967505   -1.507952785288
 N   -0.505738994760   -1.402497442473   -1.511416974235
 C    0.822390173703   -1.620691335223   -1.495849545572
 H    1.136198456673   -2.667370067713   -1.492469974881
 N    1.834739616744   -0.712710378082   -1.481878275297
 C    1.522522872837    0.598110705167   -1.486524679197
 N    2.530149827639    1.522609342472   -1.528346516128
 H    3.461601365026    1.192079233720   -1.305888581995
 H    2.297412321612    2.482580097511   -1.303536270688
 C    0.157022031963    0.974804559034   -1.495295766912
 N   -0.466507279228    2.213770259664   -1.485417557894
 C   -1.766432766385    1.905690871303   -1.493872411052
 H   -2.576486295172    2.632271672405   -1.489824273189
 H   -2.911795340323    0.088421188669   -1.516510801529
 K   -0.521577428715   -1.423308102464    5.188531985305
