16

 N   -2.007899802878    0.548817405938   -1.553688589539
 C   -0.775774070611   -0.081472874070   -1.552733629231
 N   -0.505633134485   -1.402358349038   -1.556197818178
 C    0.822496033978   -1.620552241788   -1.540630389515
 H    1.136304316948   -2.667230974278   -1.537250818824
 N    1.834845477019   -0.712571284647   -1.526659119240
 C    1.522628733112    0.598249798602   -1.531305523140
 N    2.530255687914    1.522748435907   -1.573127360071
 H    3.461707225301    1.192218327155   -1.350669425938
 H    2.297518181887    2.482719190946   -1.348317114631
 C    0.157127892238    0.974943652469   -1.540076610855
 N   -0.466401418953    2.213909353099   -1.530198401837
 C   -1.766326906110    1.905829964738   -1.538653254995
 H   -2.576380434897    2.632410765840   -1.534605117132
 H   -2.911689480048    0.088560282104   -1.561291645472
 K   -0.521944357513   -1.423790222760    5.343749617766
