16

 N   -2.007793942603    0.548956499373   -1.598469433483
 C   -0.775668210336   -0.081333780635   -1.597514473175
 N   -0.505527274210   -1.402219255603   -1.600978662122
 C    0.822601894253   -1.620413148353   -1.585411233459
 H    1.136410177223   -2.667091880843   -1.582031662768
 N    1.834951337294   -0.712432191212   -1.571439963184
 C    1.522734593387    0.598388892037   -1.576086367084
 N    2.530361548189    1.522887529342   -1.617908204015
 H    3.461813085576    1.192357420590   -1.395450269882
 H    2.297624042162    2.482858284381   -1.393097958575
 C    0.157233752513    0.975082745904   -1.584857454799
 N   -0.466295558678    2.214048446534   -1.574979245781
 C   -1.766221045835    1.905969058173   -1.583434098939
 H   -2.576274574622    2.632549859275   -1.579385961076
 H   -2.911583619773    0.088699375539   -1.606072489416
 K   -0.522311286312   -1.424272343056    5.498967250226
