16

 N   -2.007741012466    0.549026046091   -1.620859855455
 C   -0.775615280199   -0.081264233917   -1.619904895147
 N   -0.505474344073   -1.402149708885   -1.623369084094
 C    0.822654824390   -1.620343601635   -1.607801655431
 H    1.136463107360   -2.667022334125   -1.604422084740
 N    1.835004267431   -0.712362644494   -1.593830385156
 C    1.522787523524    0.598458438755   -1.598476789056
 N    2.530414478326    1.522957076060   -1.640298625987
 H    3.461866015713    1.192426967308   -1.417840691854
 H    2.297676972299    2.482927831099   -1.415488380547
 C    0.157286682650    0.975152292622   -1.607247876771
 N   -0.466242628541    2.214117993252   -1.597369667753
 C   -1.766168115698    1.906038604891   -1.605824520911
 H   -2.576221644485    2.632619405993   -1.601776383048
 H   -2.911530689636    0.088768922257   -1.628462911388
 K   -0.522494750711   -1.424513403203    5.576576066456
