16

 N   -2.007688082328    0.549095592809   -1.643250277427
 C   -0.775562350061   -0.081194687199   -1.642295317119
 N   -0.505421413935   -1.402080162167   -1.645759506066
 C    0.822707754528   -1.620274054917   -1.630192077403
 H    1.136516037498   -2.666952787407   -1.626812506712
 N    1.835057197569   -0.712293097776   -1.616220807128
 C    1.522840453662    0.598527985473   -1.620867211028
 N    2.530467408464    1.523026622778   -1.662689047959
 H    3.461918945851    1.192496514026   -1.440231113826
 H    2.297729902437    2.482997377817   -1.437878802519
 C    0.157339612788    0.975221839340   -1.629638298743
 N   -0.466189698403    2.214187539970   -1.619760089725
 C   -1.766115185560    1.906108151609   -1.628214942883
 H   -2.576168714347    2.632688952711   -1.624166805020
 H   -2.911477759498    0.088838468975   -1.650853333360
 K   -0.522678215110   -1.424754463351    5.654184882687
