16

 N   -2.007582222053    0.549234686244   -1.688031121371
 C   -0.775456489786   -0.081055593764   -1.687076161063
 N   -0.505315553660   -1.401941068732   -1.690540350010
 C    0.822813614803   -1.620134961482   -1.674972921347
 H    1.136621897773   -2.666813693972   -1.671593350656
 N    1.835163057844   -0.712154004341   -1.661001651072
 C    1.522946313937    0.598667078908   -1.665648054972
 N    2.530573268739    1.523165716213   -1.707469891903
 H    3.462024806126    1.192635607461   -1.485011957770
 H    2.297835762712    2.483136471252   -1.482659646463
 C    0.157445473063    0.975360932775   -1.674419142687
 N   -0.466083838128    2.214326633405   -1.664540933669
 C   -1.766009325285    1.906247245044   -1.672995786827
 H   -2.576062854072    2.632828046146   -1.668947648964
 H   -2.911371899223    0.088977562410   -1.695634177304
 K   -0.523045143908   -1.425236583647    5.809402515147
