16

 N   -2.007370501503    0.549512873115   -1.777592809258
 C   -0.775244769236   -0.080777406893   -1.776637848950
 N   -0.505103833110   -1.401662881861   -1.780102037897
 C    0.823025335353   -1.619856774611   -1.764534609234
 H    1.136833618323   -2.666535507101   -1.761155038543
 N    1.835374778394   -0.711875817470   -1.750563338959
 C    1.523158034487    0.598945265779   -1.755209742859
 N    2.530784989289    1.523443903084   -1.797031579790
 H    3.462236526676    1.192913794332   -1.574573645657
 H    2.298047483262    2.483414658123   -1.572221334350
 C    0.157657193613    0.975639119646   -1.763980830574
 N   -0.465872117578    2.214604820276   -1.754102621556
 C   -1.765797604735    1.906525431915   -1.762557474714
 H   -2.575851133522    2.633106233017   -1.758509336851
 H   -2.911160178673    0.089255749281   -1.785195865191
 K   -0.523779001505   -1.426200824239    6.119837780068
