16

 N   -2.007317571366    0.549582419833   -1.799983231230
 C   -0.775191839099   -0.080707860175   -1.799028270922
 N   -0.505050902973   -1.401593335143   -1.802492459869
 C    0.823078265490   -1.619787227893   -1.786925031206
 H    1.136886548460   -2.666465960383   -1.783545460515
 N    1.835427708531   -0.711806270752   -1.772953760931
 C    1.523210964624    0.599014812497   -1.777600164831
 N    2.530837919426    1.523513449802   -1.819422001762
 H    3.462289456813    1.192983341050   -1.596964067629
 H    2.298100413399    2.483484204841   -1.594611756322
 C    0.157710123750    0.975708666364   -1.786371252546
 N   -0.465819187441    2.214674366994   -1.776493043528
 C   -1.765744674598    1.906594978633   -1.784947896686
 H   -2.575798203385    2.633175779735   -1.780899758823
 H   -2.911107248536    0.089325295999   -1.807586287163
 K   -0.523962465904   -1.426441884386    6.197446596298
