16

 N   -2.007211711091    0.549721513268   -1.844764075174
 C   -0.775085978824   -0.080568766740   -1.843809114866
 N   -0.504945042698   -1.401454241708   -1.847273303813
 C    0.823184125765   -1.619648134458   -1.831705875150
 H    1.136992408735   -2.666326866948   -1.828326304459
 N    1.835533568806   -0.711667177317   -1.817734604875
 C    1.523316824899    0.599153905932   -1.822381008775
 N    2.530943779701    1.523652543237   -1.864202845706
 H    3.462395317088    1.193122434485   -1.641744911573
 H    2.298206273674    2.483623298276   -1.639392600266
 C    0.157815984025    0.975847759799   -1.831152096490
 N   -0.465713327166    2.214813460429   -1.821273887472
 C   -1.765638814323    1.906734072068   -1.829728740630
 H   -2.575692343110    2.633314873170   -1.825680602767
 H   -2.911001388261    0.089464389434   -1.852367131107
 K   -0.524329394702   -1.426924004682    6.352664228759
