16

 N   -2.006576549441    0.550556073880   -2.113449138836
 C   -0.774450817174   -0.079734206128   -2.112494178528
 N   -0.504309881048   -1.400619681096   -2.115958367475
 C    0.823819287415   -1.618813573846   -2.100390938812
 H    1.137627570385   -2.665492306336   -2.097011368121
 N    1.836168730456   -0.710832616705   -2.086419668537
 C    1.523951986549    0.599988466544   -2.091066072437
 N    2.531578941351    1.524487103849   -2.132887909368
 H    3.463030478738    1.193956995097   -1.910429975235
 H    2.298841435324    2.484457858888   -1.908077663928
 C    0.158451145675    0.976682320411   -2.099837160152
 N   -0.465078165516    2.215648021041   -2.089958951134
 C   -1.765003652673    1.907568632680   -2.098413804292
 H   -2.575057181460    2.634149433782   -2.094365666429
 H   -2.910366226611    0.090298950046   -2.121052194769
 K   -0.526530967492   -1.429816726456    7.283970023521
