16

 N   -2.006417759028    0.550764714033   -2.180620404752
 C   -0.774292026761   -0.079525565975   -2.179665444444
 N   -0.504151090635   -1.400411040943   -2.183129633391
 C    0.823978077828   -1.618604933693   -2.167562204728
 H    1.137786360798   -2.665283666183   -2.164182634037
 N    1.836327520869   -0.710623976552   -2.153590934453
 C    1.524110776962    0.600197106697   -2.158237338353
 N    2.531737731764    1.524695744002   -2.200059175284
 H    3.463189269151    1.194165635250   -1.977601241151
 H    2.299000225737    2.484666499041   -1.975248929844
 C    0.158609936088    0.976890960564   -2.167008426068
 N   -0.464919375103    2.215856661194   -2.157130217050
 C   -1.764844862260    1.907777272833   -2.165585070208
 H   -2.574898391047    2.634358073935   -2.161536932345
 H   -2.910207436198    0.090507590199   -2.188223460685
 K   -0.527081360690   -1.430539906900    7.516796472212
