16

 N   -2.006311898753    0.550903807468   -2.225401248695
 C   -0.774186166486   -0.079386472540   -2.224446288387
 N   -0.504045230360   -1.400271947508   -2.227910477334
 C    0.824083938103   -1.618465840258   -2.212343048671
 H    1.137892221073   -2.665144572748   -2.208963477980
 N    1.836433381144   -0.710484883117   -2.198371778396
 C    1.524216637237    0.600336200132   -2.203018182296
 N    2.531843592039    1.524834837437   -2.244840019227
 H    3.463295129426    1.194304728685   -2.022382085094
 H    2.299106086012    2.484805592476   -2.020029773787
 C    0.158715796363    0.977030053999   -2.211789270011
 N   -0.464813514828    2.215995754629   -2.201911060993
 C   -1.764739001985    1.907916366268   -2.210365914151
 H   -2.574792530772    2.634497167370   -2.206317776288
 H   -2.910101575923    0.090646683634   -2.233004304628
 K   -0.527448289488   -1.431022027196    7.672014104672
