8

 C    0.730217306126   -1.769990784628    0.000000000000
 H    1.765717306126   -2.146078784628    0.000000000000
 H    0.197017306126   -2.150693784628    0.888337000000
 H    0.197017306126   -2.150693784628   -0.888337000000
 C    0.688451306126   -0.213906784628    0.000000000000
 O   -0.478744693874    0.292316215372    0.000000000000
 O    1.812522306126    0.381511215372    0.000000000000
NA   -1.763146638230    0.849372447125    0.000000000000
