8

 C    2.942170088111   -2.729333836827    0.000000000000
 H    3.977670088111   -3.105421836827    0.000000000000
 H    2.408970088111   -3.110036836827    0.888337000000
 H    2.408970088111   -3.110036836827   -0.888337000000
 C    2.900404088111   -1.173249836827    0.000000000000
 O    1.733208088111   -0.667026836827    0.000000000000
 O    4.024475088111   -0.577831836827    0.000000000000
NA   -7.441091514430    3.311946247125    0.000000000000
