8

 C    0.910259974427   -1.848076847016    0.000000000000
 H    1.945759974427   -2.224164847016    0.000000000000
 H    0.377059974427   -2.228779847016    0.888337000000
 H    0.377059974427   -2.228779847016   -0.888337000000
 C    0.868493974427   -0.291992847016    0.000000000000
 O   -0.298702025573    0.214230152984    0.000000000000
 O    1.992564974427    0.303425152984    0.000000000000
NA   -2.225304942107    1.049814500614    0.000000000000
