8

 C    0.961700736799   -1.870387150556    0.000000000000
 H    1.997200736799   -2.246475150556    0.000000000000
 H    0.428500736799   -2.251090150556    0.888337000000
 H    0.428500736799   -2.251090150556   -0.888337000000
 C    0.919934736799   -0.314303150556    0.000000000000
 O   -0.247261263201    0.191919849444    0.000000000000
 O    2.044005736799    0.281114849444    0.000000000000
NA   -2.357350171786    1.107083658753    0.000000000000
