8

 C    1.090302642728   -1.926162909405    0.000000000000
 H    2.125802642728   -2.302250909405    0.000000000000
 H    0.557102642728   -2.306865909405    0.888337000000
 H    0.557102642728   -2.306865909405   -0.888337000000
 C    1.048536642728   -0.370078909405    0.000000000000
 O   -0.118659357272    0.136144090595    0.000000000000
 O    2.172607642728    0.225339090595    0.000000000000
NA   -2.687463245983    1.250256554102    0.000000000000
