8

 C    1.193184167472   -1.970783516484    0.000000000000
 H    2.228684167472   -2.346871516484    0.000000000000
 H    0.659984167472   -2.351486516484    0.888337000000
 H    0.659984167472   -2.351486516484   -0.888337000000
 C    1.151418167472   -0.414699516484    0.000000000000
 O   -0.015777832528    0.091523483516    0.000000000000
 O    2.275489167472    0.180718483516    0.000000000000
NA   -2.951553705341    1.364794870381    0.000000000000
