8

 C    1.296065692215   -2.015404123563    0.000000000000
 H    2.331565692215   -2.391492123563    0.000000000000
 H    0.762865692215   -2.396107123563    0.888337000000
 H    0.762865692215   -2.396107123563   -0.888337000000
 C    1.254299692215   -0.459320123563    0.000000000000
 O    0.087103692215    0.046902876437    0.000000000000
 O    2.378370692215    0.136097876437    0.000000000000
NA   -3.215644164700    1.479333186660    0.000000000000
