8

 C    1.527549122888   -2.115800489490    0.000000000000
 H    2.563049122888   -2.491888489490    0.000000000000
 H    0.994349122888   -2.496503489490    0.888337000000
 H    0.994349122888   -2.496503489490   -0.888337000000
 C    1.485783122888   -0.559716489490    0.000000000000
 O    0.318587122888   -0.053493489490    0.000000000000
 O    2.609854122888    0.035701510510    0.000000000000
NA   -3.809847698255    1.737044398288    0.000000000000
