8

 C    1.578989885260   -2.138110793030    0.000000000000
 H    2.614489885260   -2.514198793030    0.000000000000
 H    1.045789885260   -2.518813793030    0.888337000000
 H    1.045789885260   -2.518813793030   -0.888337000000
 C    1.537223885260   -0.582026793030    0.000000000000
 O    0.370027885260   -0.075803793030    0.000000000000
 O    2.661294885260    0.013391206970    0.000000000000
NA   -3.941892927934    1.794313556428    0.000000000000
