8

 C    1.604710266446   -2.149265944800    0.000000000000
 H    2.640210266446   -2.525353944800    0.000000000000
 H    1.071510266446   -2.529968944800    0.888337000000
 H    1.071510266446   -2.529968944800   -0.888337000000
 C    1.562944266446   -0.593181944800    0.000000000000
 O    0.395748266446   -0.086958944800    0.000000000000
 O    2.687015266446    0.002236055200    0.000000000000
NA   -4.007915542774    1.822948135497    0.000000000000
