8

 C    1.656151028817   -2.171576248339    0.000000000000
 H    2.691651028817   -2.547664248339    0.000000000000
 H    1.122951028817   -2.552279248339    0.888337000000
 H    1.122951028817   -2.552279248339   -0.888337000000
 C    1.614385028817   -0.615492248339    0.000000000000
 O    0.447189028817   -0.109269248339    0.000000000000
 O    2.738456028817   -0.020074248339    0.000000000000
NA   -4.139960772453    1.880217293637    0.000000000000
