8

 C    1.733312172375   -2.205041703649    0.000000000000
 H    2.768812172375   -2.581129703649    0.000000000000
 H    1.200112172375   -2.585744703649    0.888337000000
 H    1.200112172375   -2.585744703649   -0.888337000000
 C    1.691546172375   -0.648957703649    0.000000000000
 O    0.524350172375   -0.142734703649    0.000000000000
 O    2.815617172375   -0.053539703649    0.000000000000
NA   -4.338028616972    1.966121030846    0.000000000000
