8

 C    1.836193697118   -2.249662310728    0.000000000000
 H    2.871693697118   -2.625750310728    0.000000000000
 H    1.302993697118   -2.630365310728    0.888337000000
 H    1.302993697118   -2.630365310728   -0.888337000000
 C    1.794427697118   -0.693578310728    0.000000000000
 O    0.627231697118   -0.187355310728    0.000000000000
 O    2.918498697118   -0.098160310728    0.000000000000
NA   -4.602119076330    2.080659347125    0.000000000000
