8

 C    1.887634459490   -2.271972614267    0.000000000000
 H    2.923134459490   -2.648060614267    0.000000000000
 H    1.354434459490   -2.652675614267    0.888337000000
 H    1.354434459490   -2.652675614267   -0.888337000000
 C    1.845868459490   -0.715888614267    0.000000000000
 O    0.678672459490   -0.209665614267    0.000000000000
 O    2.969939459490   -0.120470614267    0.000000000000
NA   -4.734164306009    2.137928505265    0.000000000000
