8

 C    1.913354840676   -2.283127766037    0.000000000000
 H    2.948854840676   -2.659215766037    0.000000000000
 H    1.380154840676   -2.663830766037    0.888337000000
 H    1.380154840676   -2.663830766037   -0.888337000000
 C    1.871588840676   -0.727043766037    0.000000000000
 O    0.704392840676   -0.220820766037    0.000000000000
 O    2.995659840676   -0.131625766037    0.000000000000
NA   -4.800186920848    2.166563084335    0.000000000000
