8

 C    1.939075221862   -2.294282917807    0.000000000000
 H    2.974575221862   -2.670370917807    0.000000000000
 H    1.405875221862   -2.674985917807    0.888337000000
 H    1.405875221862   -2.674985917807   -0.888337000000
 C    1.897309221862   -0.738198917807    0.000000000000
 O    0.730113221862   -0.231975917807    0.000000000000
 O    3.021380221862   -0.142780917807    0.000000000000
NA   -4.866209535688    2.195197663404    0.000000000000
