8

 C    2.041956746605   -2.338903524886    0.000000000000
 H    3.077456746605   -2.714991524886    0.000000000000
 H    1.508756746605   -2.719606524886    0.888337000000
 H    1.508756746605   -2.719606524886   -0.888337000000
 C    2.000190746605   -0.782819524886    0.000000000000
 O    0.832994746605   -0.276596524886    0.000000000000
 O    3.124261746605   -0.187401524886    0.000000000000
NA   -5.130299995046    2.309735979683    0.000000000000
