8

 C    2.067677127791   -2.350058676655    0.000000000000
 H    3.103177127791   -2.726146676655    0.000000000000
 H    1.534477127791   -2.730761676655    0.888337000000
 H    1.534477127791   -2.730761676655   -0.888337000000
 C    2.025911127791   -0.793974676655    0.000000000000
 O    0.858715127791   -0.287751676655    0.000000000000
 O    3.149982127791   -0.198556676655    0.000000000000
NA   -5.196322609886    2.338370558753    0.000000000000
