8

 C    2.196279033721   -2.405834435504    0.000000000000
 H    3.231779033721   -2.781922435504    0.000000000000
 H    1.663079033721   -2.786537435504    0.888337000000
 H    1.663079033721   -2.786537435504   -0.888337000000
 C    2.154513033721   -0.849750435504    0.000000000000
 O    0.987317033721   -0.343527435504    0.000000000000
 O    3.278584033721   -0.254332435504    0.000000000000
NA   -5.526435684083    2.481543454102    0.000000000000
