8

 C    2.273440177278   -2.439299890813    0.000000000000
 H    3.308940177278   -2.815387890813    0.000000000000
 H    1.740240177278   -2.820002890813    0.888337000000
 H    1.740240177278   -2.820002890813   -0.888337000000
 C    2.231674177278   -0.883215890813    0.000000000000
 O    1.064478177278   -0.376992890813    0.000000000000
 O    3.355745177278   -0.287797890813    0.000000000000
NA   -5.724503528602    2.567447191311    0.000000000000
