8

 C    2.350601320836   -2.472765346123    0.000000000000
 H    3.386101320836   -2.848853346123    0.000000000000
 H    1.817401320836   -2.853468346123    0.888337000000
 H    1.817401320836   -2.853468346123   -0.888337000000
 C    2.308835320836   -0.916681346123    0.000000000000
 O    1.141639320836   -0.410458346123    0.000000000000
 O    3.432906320836   -0.321263346123    0.000000000000
NA   -5.922571373121    2.653350928521    0.000000000000
