8

 C    2.376321702022   -2.483920497893    0.000000000000
 H    3.411821702022   -2.860008497893    0.000000000000
 H    1.843121702022   -2.864623497893    0.888337000000
 H    1.843121702022   -2.864623497893   -0.888337000000
 C    2.334555702022   -0.927836497893    0.000000000000
 O    1.167359702022   -0.421613497893    0.000000000000
 O    3.458626702022   -0.332418497893    0.000000000000
NA   -5.988593987960    2.681985507590    0.000000000000
