8

 C    2.402042083208   -2.495075649662    0.000000000000
 H    3.437542083208   -2.871163649662    0.000000000000
 H    1.868842083208   -2.875778649662    0.888337000000
 H    1.868842083208   -2.875778649662   -0.888337000000
 C    2.360276083208   -0.938991649662    0.000000000000
 O    1.193080083208   -0.432768649662    0.000000000000
 O    3.484347083208   -0.343573649662    0.000000000000
NA   -6.054616602800    2.710620086660    0.000000000000
