8

 C    2.453482845579   -2.517385953202    0.000000000000
 H    3.488982845579   -2.893473953202    0.000000000000
 H    1.920282845579   -2.898088953202    0.888337000000
 H    1.920282845579   -2.898088953202   -0.888337000000
 C    2.411716845579   -0.961301953202    0.000000000000
 O    1.244520845579   -0.455078953202    0.000000000000
 O    3.535787845579   -0.365883953202    0.000000000000
NA   -6.186661832479    2.767889244800    0.000000000000
