8

 C    2.479203226765   -2.528541104972    0.000000000000
 H    3.514703226765   -2.904629104972    0.000000000000
 H    1.946003226765   -2.909244104972    0.888337000000
 H    1.946003226765   -2.909244104972   -0.888337000000
 C    2.437437226765   -0.972457104972    0.000000000000
 O    1.270241226765   -0.466234104972    0.000000000000
 O    3.561508226765   -0.377039104972    0.000000000000
NA   -6.252684447318    2.796523823870    0.000000000000
