8

 C    2.582084751509   -2.573161712051    0.000000000000
 H    3.617584751509   -2.949249712051    0.000000000000
 H    2.048884751509   -2.953864712051    0.888337000000
 H    2.048884751509   -2.953864712051   -0.888337000000
 C    2.540318751509   -1.017077712051    0.000000000000
 O    1.373122751509   -0.510854712051    0.000000000000
 O    3.664389751509   -0.421659712051    0.000000000000
NA   -6.516774906676    2.911062140149    0.000000000000
