8

 C    2.736407038624   -2.640092622669    0.000000000000
 H    3.771907038624   -3.016180622669    0.000000000000
 H    2.203207038624   -3.020795622669    0.888337000000
 H    2.203207038624   -3.020795622669   -0.888337000000
 C    2.694641038624   -1.084008622669    0.000000000000
 O    1.527445038624   -0.577785622669    0.000000000000
 O    3.818712038624   -0.488590622669    0.000000000000
NA   -6.912910595714    3.082869614567    0.000000000000
