8

 C    2.762127419810   -2.651247774439    0.000000000000
 H    3.797627419810   -3.027335774439    0.000000000000
 H    2.228927419810   -3.031950774439    0.888337000000
 H    2.228927419810   -3.031950774439   -0.888337000000
 C    2.720361419810   -1.095163774439    0.000000000000
 O    1.553165419810   -0.588940774439    0.000000000000
 O    3.844432419810   -0.499745774439    0.000000000000
NA   -6.978933210553    3.111504193637    0.000000000000
