8

 C    2.890729325739   -2.707023533288    0.000000000000
 H    3.926229325739   -3.083111533288    0.000000000000
 H    2.357529325739   -3.087726533288    0.888337000000
 H    2.357529325739   -3.087726533288   -0.888337000000
 C    2.848963325739   -1.150939533288    0.000000000000
 O    1.681767325739   -0.644716533288    0.000000000000
 O    3.973034325739   -0.555521533288    0.000000000000
NA   -7.309046284751    3.254677088986    0.000000000000
