8

 C    2.916449706925   -2.718178685057    0.000000000000
 H    3.951949706925   -3.094266685057    0.000000000000
 H    2.383249706925   -3.098881685057    0.888337000000
 H    2.383249706925   -3.098881685057   -0.888337000000
 C    2.874683706925   -1.162094685057    0.000000000000
 O    1.707487706925   -0.655871685057    0.000000000000
 O    3.998754706925   -0.566676685057    0.000000000000
NA   -7.375068899590    3.283311668056    0.000000000000
