9

 C   -0.220408292729   -2.161778515834    0.000000000000
 H   -1.199335292729   -1.669990515834    0.000000000000
 H   -0.113262292729   -2.801587515834    0.888272000000
 H   -0.113262292729   -2.801587515834   -0.888272000000
 C    0.864218707271   -1.116194515834    0.000000000000
 O    0.703114707271    0.093356484166    0.000000000000
 O    2.106504707271   -1.693202515834    0.000000000000
 H    2.741040707271   -0.954639515834    0.000000000000
CS   -0.406234800668    0.550897377676    0.000000000000
