9

 C   -0.156723186578   -2.188044845934    0.000000000000
 H   -1.135650186578   -1.696256845934    0.000000000000
 H   -0.049577186578   -2.827853845934    0.888272000000
 H   -0.049577186578   -2.827853845934   -0.888272000000
 C    0.927903813422   -1.142460845934    0.000000000000
 O    0.766799813422    0.067090154066    0.000000000000
 O    2.170189813422   -1.719468845934    0.000000000000
 H    2.804725813422   -0.980905845934    0.000000000000
CS   -0.434995486845    0.562759455369    0.000000000000
