9

 C    0.034332131875   -2.266843836234    0.000000000000
 H   -0.944594868125   -1.775055836234    0.000000000000
 H    0.141478131875   -2.906652836234    0.888272000000
 H    0.141478131875   -2.906652836234   -0.888272000000
 C    1.118959131875   -1.221259836234    0.000000000000
 O    0.957855131875   -0.011708836234    0.000000000000
 O    2.361245131875   -1.798267836234    0.000000000000
 H    2.995781131875   -1.059704836234    0.000000000000
CS   -0.521277545377    0.598345688447    0.000000000000
