9

 C    5.383881048557   -4.473215564619    0.000000000000
 H    4.404954048557   -3.981427564619    0.000000000000
 H    5.491027048557   -5.113024564619    0.888272000000
 H    5.491027048557   -5.113024564619   -0.888272000000
 C    6.468508048557   -3.427631564619    0.000000000000
 O    6.307404048557   -2.218080564619    0.000000000000
 O    7.710794048557   -4.004639564619    0.000000000000
 H    8.345330048557   -3.266076564619    0.000000000000
CS   -2.937175184273    1.594760214634    0.000000000000
