9

 C    0.416442768781   -2.424441816833    0.000000000000
 H   -0.562484231219   -1.932653816833    0.000000000000
 H    0.523588768781   -3.064250816833    0.888272000000
 H    0.523588768781   -3.064250816833   -0.888272000000
 C    1.501069768781   -1.378857816833    0.000000000000
 O    1.339965768781   -0.169306816833    0.000000000000
 O    2.743355768781   -1.955865816833    0.000000000000
 H    3.377891768781   -1.217302816833    0.000000000000
CS   -0.693841662441    0.669518154603    0.000000000000
