9

 C    0.671183193385   -2.529507137232    0.000000000000
 H   -0.307743806615   -2.037719137232    0.000000000000
 H    0.778329193385   -3.169316137232    0.888272000000
 H    0.778329193385   -3.169316137232   -0.888272000000
 C    1.755810193385   -1.483923137232    0.000000000000
 O    1.594706193385   -0.274372137232    0.000000000000
 O    2.998096193385   -2.060931137232    0.000000000000
 H    3.632632193385   -1.322368137232    0.000000000000
CS   -0.808884407151    0.716966465374    0.000000000000
