9

 C    0.734868299536   -2.555773467332    0.000000000000
 H   -0.244058700464   -2.063985467332    0.000000000000
 H    0.842014299536   -3.195582467332    0.888272000000
 H    0.842014299536   -3.195582467332   -0.888272000000
 C    1.819495299536   -1.510189467332    0.000000000000
 O    1.658391299536   -0.300638467332    0.000000000000
 O    3.061781299536   -2.087197467332    0.000000000000
 H    3.696317299536   -1.348634467332    0.000000000000
CS   -0.837645093328    0.728828543067    0.000000000000
