9

 C    0.798553405687   -2.582039797431    0.000000000000
 H   -0.180373594313   -2.090251797431    0.000000000000
 H    0.905699405687   -3.221848797431    0.888272000000
 H    0.905699405687   -3.221848797431   -0.888272000000
 C    1.883180405687   -1.536455797431    0.000000000000
 O    1.722076405687   -0.326904797431    0.000000000000
 O    3.125466405687   -2.113463797431    0.000000000000
 H    3.760002405687   -1.374900797431    0.000000000000
CS   -0.866405779505    0.740690620759    0.000000000000
