9

 C    0.925923617989   -2.634572457631    0.000000000000
 H   -0.053003382011   -2.142784457631    0.000000000000
 H    1.033069617989   -3.274381457631    0.888272000000
 H    1.033069617989   -3.274381457631   -0.888272000000
 C    2.010550617989   -1.588988457631    0.000000000000
 O    1.849446617989   -0.379437457631    0.000000000000
 O    3.252836617989   -2.165996457631    0.000000000000
 H    3.887372617989   -1.427433457631    0.000000000000
CS   -0.923927151860    0.764414776145    0.000000000000
