9

 C    1.626459785650   -2.923502088729    0.000000000000
 H    0.647532785650   -2.431714088729    0.000000000000
 H    1.733605785650   -3.563311088729    0.888272000000
 H    1.733605785650   -3.563311088729   -0.888272000000
 C    2.711086785650   -1.877918088729    0.000000000000
 O    2.549982785650   -0.668367088729    0.000000000000
 O    3.953372785650   -2.454926088729    0.000000000000
 H    4.587908785650   -1.716363088729    0.000000000000
CS   -1.240294699811    0.894897630765    0.000000000000
