9

 C    1.690144891801   -2.949768418829    0.000000000000
 H    0.711217891801   -2.457980418829    0.000000000000
 H    1.797290891801   -3.589577418829    0.888272000000
 H    1.797290891801   -3.589577418829   -0.888272000000
 C    2.774771891801   -1.904184418829    0.000000000000
 O    2.613667891801   -0.694633418829    0.000000000000
 O    4.017057891801   -2.481192418829    0.000000000000
 H    4.651593891801   -1.742629418829    0.000000000000
CS   -1.269055385988    0.906759708457    0.000000000000
