9

 C    1.753829997952   -2.976034748929    0.000000000000
 H    0.774902997952   -2.484246748929    0.000000000000
 H    1.860975997952   -3.615843748929    0.888272000000
 H    1.860975997952   -3.615843748929   -0.888272000000
 C    2.838456997952   -1.930450748929    0.000000000000
 O    2.677352997952   -0.720899748929    0.000000000000
 O    4.080742997952   -2.507458748929    0.000000000000
 H    4.715278997952   -1.768895748929    0.000000000000
CS   -1.297816072165    0.918621786150    0.000000000000
