9

 C    1.881200210254   -3.028567409128    0.000000000000
 H    0.902273210254   -2.536779409128    0.000000000000
 H    1.988346210254   -3.668376409128    0.888272000000
 H    1.988346210254   -3.668376409128   -0.888272000000
 C    2.965827210254   -1.982983409128    0.000000000000
 O    2.804723210254   -0.773432409128    0.000000000000
 O    4.208113210254   -2.559991409128    0.000000000000
 H    4.842649210254   -1.821428409128    0.000000000000
CS   -1.355337444520    0.942345941535    0.000000000000
