9

 C    2.008570422555   -3.081100069328    0.000000000000
 H    1.029643422555   -2.589312069328    0.000000000000
 H    2.115716422555   -3.720909069328    0.888272000000
 H    2.115716422555   -3.720909069328   -0.888272000000
 C    3.093197422555   -2.035516069328    0.000000000000
 O    2.932093422555   -0.825965069328    0.000000000000
 O    4.335483422555   -2.612524069328    0.000000000000
 H    4.970019422555   -1.873961069328    0.000000000000
CS   -1.412858816875    0.966070096921    0.000000000000
