9

 C    2.072255528706   -3.107366399428    0.000000000000
 H    1.093328528706   -2.615578399428    0.000000000000
 H    2.179401528706   -3.747175399428    0.888272000000
 H    2.179401528706   -3.747175399428   -0.888272000000
 C    3.156882528706   -2.061782399428    0.000000000000
 O    2.995778528706   -0.852231399428    0.000000000000
 O    4.399168528706   -2.638790399428    0.000000000000
 H    5.033704528706   -1.900227399428    0.000000000000
CS   -1.441619503052    0.977932174613    0.000000000000
