9

 C    2.135940634857   -3.133632729528    0.000000000000
 H    1.157013634857   -2.641844729528    0.000000000000
 H    2.243086634857   -3.773441729528    0.888272000000
 H    2.243086634857   -3.773441729528   -0.888272000000
 C    3.220567634857   -2.088048729528    0.000000000000
 O    3.059463634857   -0.878497729528    0.000000000000
 O    4.462853634857   -2.665056729528    0.000000000000
 H    5.097389634857   -1.926493729528    0.000000000000
CS   -1.470380189229    0.989794252306    0.000000000000
