9

 C    2.263310847159   -3.186165389727    0.000000000000
 H    1.284383847159   -2.694377389727    0.000000000000
 H    2.370456847159   -3.825974389727    0.888272000000
 H    2.370456847159   -3.825974389727   -0.888272000000
 C    3.347937847159   -2.140581389727    0.000000000000
 O    3.186833847159   -0.931030389727    0.000000000000
 O    4.590223847159   -2.717589389727    0.000000000000
 H    5.224759847159   -1.979026389727    0.000000000000
CS   -1.527901561584    1.013518407692    0.000000000000
