9

 C    2.326995953310   -3.212431719827    0.000000000000
 H    1.348068953310   -2.720643719827    0.000000000000
 H    2.434141953310   -3.852240719827    0.888272000000
 H    2.434141953310   -3.852240719827   -0.888272000000
 C    3.411622953310   -2.166847719827    0.000000000000
 O    3.250518953310   -0.957296719827    0.000000000000
 O    4.653908953310   -2.743855719827    0.000000000000
 H    5.288444953310   -2.005292719827    0.000000000000
CS   -1.556662247761    1.025380485384    0.000000000000
