9

 C    2.518051271763   -3.291230710127    0.000000000000
 H    1.539124271763   -2.799442710127    0.000000000000
 H    2.625197271763   -3.931039710127    0.888272000000
 H    2.625197271763   -3.931039710127   -0.888272000000
 C    3.602678271763   -2.245646710127    0.000000000000
 O    3.441574271763   -1.036095710127    0.000000000000
 O    4.844964271763   -2.822654710127    0.000000000000
 H    5.479500271763   -2.084091710127    0.000000000000
CS   -1.642944306293    1.060966718462    0.000000000000
