9

 C    2.645421484065   -3.343763370326    0.000000000000
 H    1.666494484065   -2.851975370326    0.000000000000
 H    2.752567484065   -3.983572370326    0.888272000000
 H    2.752567484065   -3.983572370326   -0.888272000000
 C    3.730048484065   -2.298179370326    0.000000000000
 O    3.568944484065   -1.088628370326    0.000000000000
 O    4.972334484065   -2.875187370326    0.000000000000
 H    5.606870484065   -2.136624370326    0.000000000000
CS   -1.700465678648    1.084690873848    0.000000000000
