9

 C    2.772791696367   -3.396296030526    0.000000000000
 H    1.793864696367   -2.904508030526    0.000000000000
 H    2.879937696367   -4.036105030526    0.888272000000
 H    2.879937696367   -4.036105030526   -0.888272000000
 C    3.857418696367   -2.350712030526    0.000000000000
 O    3.696314696367   -1.141161030526    0.000000000000
 O    5.099704696367   -2.927720030526    0.000000000000
 H    5.734240696367   -2.189157030526    0.000000000000
CS   -1.757987051002    1.108415029233    0.000000000000
