9

 C    2.836476802518   -3.422562360626    0.000000000000
 H    1.857549802518   -2.930774360626    0.000000000000
 H    2.943622802518   -4.062371360626    0.888272000000
 H    2.943622802518   -4.062371360626   -0.888272000000
 C    3.921103802518   -2.376978360626    0.000000000000
 O    3.759999802518   -1.167427360626    0.000000000000
 O    5.163389802518   -2.953986360626    0.000000000000
 H    5.797925802518   -2.215423360626    0.000000000000
CS   -1.786747737180    1.120277106926    0.000000000000
