9

 C    3.027532120971   -3.501361350925    0.000000000000
 H    2.048605120971   -3.009573350925    0.000000000000
 H    3.134678120971   -4.141170350925    0.888272000000
 H    3.134678120971   -4.141170350925   -0.888272000000
 C    4.112159120971   -2.455777350925    0.000000000000
 O    3.951055120971   -1.246226350925    0.000000000000
 O    5.354445120971   -3.032785350925    0.000000000000
 H    5.988981120971   -2.294222350925    0.000000000000
CS   -1.873029795712    1.155863340004    0.000000000000
