9

 C    3.154902333273   -3.553894011125    0.000000000000
 H    2.175975333273   -3.062106011125    0.000000000000
 H    3.262048333273   -4.193703011125    0.888272000000
 H    3.262048333273   -4.193703011125   -0.888272000000
 C    4.239529333273   -2.508310011125    0.000000000000
 O    4.078425333273   -1.298759011125    0.000000000000
 O    5.481815333273   -3.085318011125    0.000000000000
 H    6.116351333273   -2.346755011125    0.000000000000
CS   -1.930551168066    1.179587495389    0.000000000000
