9

 C    3.282272545575   -3.606426671325    0.000000000000
 H    2.303345545575   -3.114638671325    0.000000000000
 H    3.389418545575   -4.246235671325    0.888272000000
 H    3.389418545575   -4.246235671325   -0.888272000000
 C    4.366899545575   -2.560842671325    0.000000000000
 O    4.205795545575   -1.351291671325    0.000000000000
 O    5.609185545575   -3.137850671325    0.000000000000
 H    6.243721545575   -2.399287671325    0.000000000000
CS   -1.988072540421    1.203311650775    0.000000000000
