9

 C    3.345957651726   -3.632693001424    0.000000000000
 H    2.367030651726   -3.140905001424    0.000000000000
 H    3.453103651726   -4.272502001424    0.888272000000
 H    3.453103651726   -4.272502001424   -0.888272000000
 C    4.430584651726   -2.587109001424    0.000000000000
 O    4.269480651726   -1.377558001424    0.000000000000
 O    5.672870651726   -3.164117001424    0.000000000000
 H    6.307406651726   -2.425554001424    0.000000000000
CS   -2.016833226598    1.215173728468    0.000000000000
