9

 C    3.409642757877   -3.658959331524    0.000000000000
 H    2.430715757877   -3.167171331524    0.000000000000
 H    3.516788757877   -4.298768331524    0.888272000000
 H    3.516788757877   -4.298768331524   -0.888272000000
 C    4.494269757877   -2.613375331524    0.000000000000
 O    4.333165757877   -1.403824331524    0.000000000000
 O    5.736555757877   -3.190383331524    0.000000000000
 H    6.371091757877   -2.451820331524    0.000000000000
CS   -2.045593912776    1.227035806160    0.000000000000
