9

 C    3.600698076330   -3.737758321824    0.000000000000
 H    2.621771076330   -3.245970321824    0.000000000000
 H    3.707844076330   -4.377567321824    0.888272000000
 H    3.707844076330   -4.377567321824   -0.888272000000
 C    4.685325076330   -2.692174321824    0.000000000000
 O    4.524221076330   -1.482623321824    0.000000000000
 O    5.927611076330   -3.269182321824    0.000000000000
 H    6.562147076330   -2.530619321824    0.000000000000
CS   -2.131875971308    1.262622039238    0.000000000000
