9

 C    3.664383182481   -3.764024651924    0.000000000000
 H    2.685456182481   -3.272236651924    0.000000000000
 H    3.771529182481   -4.403833651924    0.888272000000
 H    3.771529182481   -4.403833651924   -0.888272000000
 C    4.749010182481   -2.718440651924    0.000000000000
 O    4.587906182481   -1.508889651924    0.000000000000
 O    5.991296182481   -3.295448651924    0.000000000000
 H    6.625832182481   -2.556885651924    0.000000000000
CS   -2.160636657485    1.274484116931    0.000000000000
