9

 C    3.855438500934   -3.842823642223    0.000000000000
 H    2.876511500934   -3.351035642223    0.000000000000
 H    3.962584500934   -4.482632642223    0.888272000000
 H    3.962584500934   -4.482632642223   -0.888272000000
 C    4.940065500934   -2.797239642223    0.000000000000
 O    4.778961500934   -1.587688642223    0.000000000000
 O    6.182351500934   -3.374247642223    0.000000000000
 H    6.816887500934   -2.635684642223    0.000000000000
CS   -2.246918716017    1.310070350009    0.000000000000
