9

 C    3.919123607085   -3.869089972323    0.000000000000
 H    2.940196607085   -3.377301972323    0.000000000000
 H    4.026269607085   -4.508898972323    0.888272000000
 H    4.026269607085   -4.508898972323   -0.888272000000
 C    5.003750607085   -2.823505972323    0.000000000000
 O    4.842646607085   -1.613954972323    0.000000000000
 O    6.246036607085   -3.400513972323    0.000000000000
 H    6.880572607085   -2.661950972323    0.000000000000
CS   -2.275679402194    1.321932427702    0.000000000000
