9

 C    4.173864031688   -3.974155292722    0.000000000000
 H    3.194937031688   -3.482367292722    0.000000000000
 H    4.281010031688   -4.613964292722    0.888272000000
 H    4.281010031688   -4.613964292722   -0.888272000000
 C    5.258491031688   -2.928571292722    0.000000000000
 O    5.097387031688   -1.719020292722    0.000000000000
 O    6.500777031688   -3.505579292722    0.000000000000
 H    7.135313031688   -2.767016292722    0.000000000000
CS   -2.390722146904    1.369380738473    0.000000000000
