9

 C    4.237549137839   -4.000421622822    0.000000000000
 H    3.258622137839   -3.508633622822    0.000000000000
 H    4.344695137839   -4.640230622822    0.888272000000
 H    4.344695137839   -4.640230622822   -0.888272000000
 C    5.322176137839   -2.954837622822    0.000000000000
 O    5.161072137839   -1.745286622822    0.000000000000
 O    6.564462137839   -3.531845622822    0.000000000000
 H    7.198998137839   -2.793282622822    0.000000000000
CS   -2.419482833081    1.381242816165    0.000000000000
