9

 C    4.428604456292   -4.079220613121    0.000000000000
 H    3.449677456292   -3.587432613121    0.000000000000
 H    4.535750456292   -4.719029613121    0.888272000000
 H    4.535750456292   -4.719029613121   -0.888272000000
 C    5.513231456292   -3.033636613121    0.000000000000
 O    5.352127456292   -1.824085613121    0.000000000000
 O    6.755517456292   -3.610644613121    0.000000000000
 H    7.390053456292   -2.872081613121    0.000000000000
CS   -2.505764891613    1.416829049244    0.000000000000
