9

 C    4.492289562443   -4.105486943221    0.000000000000
 H    3.513362562443   -3.613698943221    0.000000000000
 H    4.599435562443   -4.745295943221    0.888272000000
 H    4.599435562443   -4.745295943221   -0.888272000000
 C    5.576916562443   -3.059902943221    0.000000000000
 O    5.415812562443   -1.850351943221    0.000000000000
 O    6.819202562443   -3.636910943221    0.000000000000
 H    7.453738562443   -2.898347943221    0.000000000000
CS   -2.534525577790    1.428691126936    0.000000000000
