9

 C    4.683344880896   -4.184285933521    0.000000000000
 H    3.704417880896   -3.692497933521    0.000000000000
 H    4.790490880896   -4.824094933521    0.888272000000
 H    4.790490880896   -4.824094933521   -0.888272000000
 C    5.767971880896   -3.138701933521    0.000000000000
 O    5.606867880896   -1.929150933521    0.000000000000
 O    7.010257880896   -3.715709933521    0.000000000000
 H    7.644793880896   -2.977146933521    0.000000000000
CS   -2.620807636322    1.464277360014    0.000000000000
