9

 C    5.001770411651   -4.315617584020    0.000000000000
 H    4.022843411651   -3.823829584020    0.000000000000
 H    5.108916411651   -4.955426584020    0.888272000000
 H    5.108916411651   -4.955426584020   -0.888272000000
 C    6.086397411651   -3.270033584020    0.000000000000
 O    5.925293411651   -2.060482584020    0.000000000000
 O    7.328683411651   -3.847041584020    0.000000000000
 H    7.963219411651   -3.108478584020    0.000000000000
CS   -2.764611067209    1.523587748478    0.000000000000
