9

 C    5.256510836255   -4.420682904419    0.000000000000
 H    4.277583836255   -3.928894904419    0.000000000000
 H    5.363656836255   -5.060491904419    0.888272000000
 H    5.363656836255   -5.060491904419   -0.888272000000
 C    6.341137836255   -3.375098904419    0.000000000000
 O    6.180033836255   -2.165547904419    0.000000000000
 O    7.583423836255   -3.952106904419    0.000000000000
 H    8.217959836255   -3.213543904419    0.000000000000
CS   -2.879653811918    1.571036059249    0.000000000000
