15

 C    2.702178212183    1.469435828299    2.890109200425
 H    2.834088212183    0.762335828299    3.716719200425
 H    2.420708212183    2.454905828299    3.275189200425
 H    3.647208212183    1.543975828299    2.338699200425
 C    1.656498212183    0.940035828299    1.882239200425
 O    0.945938212183    1.787875828299    1.244029200425
 O    1.594988212183   -0.323634171701    1.698509200425
RB   -0.402651787817   -0.213094171701   -0.401970799575
 C   -1.113124655926   -0.634003933225   -1.272639092517
 O   -0.932262220224    0.629023012934   -1.190219692329
 O   -0.602207270432   -1.480813579247   -0.464830470996
 C   -1.949504808219   -1.162023403709   -2.460510153381
 H   -2.358784816148   -2.155427554326   -2.250629360911
 H   -1.266557097375   -1.213994150483   -3.316969544265
 H   -2.757249513532   -0.462296374720   -2.702898371622
