15

 C    2.736611774220    1.489835512841    2.932306745222
 H    2.868521774220    0.782735512841    3.758916745222
 H    2.455141774220    2.475305512841    3.317386745222
 H    3.681641774220    1.564375512841    2.380896745222
 C    1.690931774220    0.960435512841    1.924436745222
 O    0.980371774220    1.808275512841    1.286226745222
 O    1.629421774220   -0.303234487159    1.740706745222
RB   -0.368218225780   -0.192694487159   -0.359773254778
 C   -1.197103238573   -0.683755875603   -1.375552929878
 O   -1.016240802872    0.579271070556   -1.293133529690
 O   -0.686185853079   -1.530565521625   -0.567744308356
 C   -2.033483390867   -1.211775346087   -2.563423990742
 H   -2.442763398796   -2.205179496704   -2.353543198272
 H   -1.350535680023   -1.263746092861   -3.419883381625
 H   -2.841228096180   -0.512048317098   -2.805812208982
