15

 C    2.788262117276    1.520435039655    2.995603062417
 H    2.920172117276    0.813335039655    3.822213062417
 H    2.506792117276    2.505905039655    3.380683062417
 H    3.733292117276    1.594975039655    2.444193062417
 C    1.742582117276    0.991035039655    1.987733062417
 O    1.032022117276    1.838875039655    1.349523062417
 O    1.681072117276   -0.272634960345    1.804003062417
RB   -0.316567882724   -0.162094960345   -0.296476937583
 C   -1.323071112545   -0.758383789170   -1.529923685919
 O   -1.142208676843    0.504643156989   -1.447504285731
 O   -0.812153727051   -1.605193435192   -0.722115064397
 C   -2.159451264839   -1.286403259654   -2.717794746783
 H   -2.568731272768   -2.279807410271   -2.507913954313
 H   -1.476503553994   -1.338374006428   -3.574254137666
 H   -2.967195970151   -0.586676230666   -2.960182965023
