15

 C    2.805478898294    1.530634881926    3.016701834815
 H    2.937388898294    0.823534881926    3.843311834815
 H    2.524008898294    2.516104881926    3.401781834815
 H    3.750508898294    1.605174881926    2.465291834815
 C    1.759798898294    1.001234881926    2.008831834815
 O    1.049238898294    1.849074881926    1.370621834815
 O    1.698288898294   -0.262435118074    1.825101834815
RB   -0.299351101706   -0.151895118074   -0.275378165185
 C   -1.365060403869   -0.783259760359   -1.581380604599
 O   -1.184197968167    0.479767185800   -1.498961204411
 O   -0.854143018375   -1.630069406381   -0.773571983077
 C   -2.201440556163   -1.311279230843   -2.769251665463
 H   -2.610720564091   -2.304683381460   -2.559370872993
 H   -1.518492845318   -1.363249977617   -3.625711056346
 H   -3.009185261475   -0.611552201855   -3.011639883703
