15

 C    2.822695679313    1.540834724197    3.037800607213
 H    2.954605679313    0.833734724197    3.864410607213
 H    2.541225679313    2.526304724197    3.422880607213
 H    3.767725679313    1.615374724197    2.486390607213
 C    1.777015679313    1.011434724197    2.029930607213
 O    1.066455679313    1.859274724197    1.391720607213
 O    1.715505679313   -0.252235275803    1.846200607213
RB   -0.282134320687   -0.141695275803   -0.254279392787
 C   -1.407049695193   -0.808135731548   -1.632837523279
 O   -1.226187259491    0.454891214611   -1.550418123091
 O   -0.896132309699   -1.654945377570   -0.825028901757
 C   -2.243429847486   -1.336155202032   -2.820708584143
 H   -2.652709855415   -2.329559352649   -2.610827791673
 H   -1.560482136642   -1.388125948806   -3.677167975027
 H   -3.051174552799   -0.636428173044   -3.063096802384
