15

 C    2.839912460332    1.551034566469    3.058899379611
 H    2.971822460332    0.843934566469    3.885509379611
 H    2.558442460332    2.536504566469    3.443979379611
 H    3.784942460332    1.625574566469    2.507489379611
 C    1.794232460332    1.021634566469    2.051029379611
 O    1.083672460332    1.869474566469    1.412819379611
 O    1.732722460332   -0.242035433531    1.867299379611
RB   -0.264917539668   -0.131495433531   -0.233180620389
 C   -1.449038986517   -0.833011702737   -1.684294441959
 O   -1.268176550815    0.430015243422   -1.601875041771
 O   -0.938121601023   -1.679821348759   -0.876485820438
 C   -2.285419138810   -1.361031173222   -2.872165502824
 H   -2.694699146739   -2.354435323838   -2.662284710353
 H   -1.602471427966   -1.413001919995   -3.728624893707
 H   -3.093163844123   -0.661304144233   -3.114553721064
