15

 C    2.857129241350    1.561234408740    3.079998152010
 H    2.989039241350    0.854134408740    3.906608152010
 H    2.575659241350    2.546704408740    3.465078152010
 H    3.802159241350    1.635774408740    2.528588152010
 C    1.811449241350    1.031834408740    2.072128152010
 O    1.100889241350    1.879674408740    1.433918152010
 O    1.749939241350   -0.231835591260    1.888398152010
RB   -0.247700758650   -0.121295591260   -0.212081847990
 C   -1.491028277840   -0.857887673927   -1.735751360640
 O   -1.310165842139    0.405139272233   -1.653331960452
 O   -0.980110892347   -1.704697319948   -0.927942739118
 C   -2.327408430134   -1.385907144411   -2.923622421504
 H   -2.736688438063   -2.379311295027   -2.713741629034
 H   -1.644460719290   -1.437877891184   -3.780081812387
 H   -3.135153135447   -0.686180115422   -3.166010639744
