15

 C    2.874346022369    1.571434251011    3.101096924408
 H    3.006256022369    0.864334251011    3.927706924408
 H    2.592876022369    2.556904251011    3.486176924408
 H    3.819376022369    1.645974251011    2.549686924408
 C    1.828666022369    1.042034251011    2.093226924408
 O    1.118106022369    1.889874251011    1.455016924408
 O    1.767156022369   -0.221635748989    1.909496924408
RB   -0.230483977631   -0.111095748989   -0.190983075592
 C   -1.533017569164   -0.882763645116   -1.787208279320
 O   -1.352155133463    0.380263301044   -1.704788879132
 O   -1.022100183670   -1.729573291137   -0.979399657798
 C   -2.369397721458   -1.410783115600   -2.975079340184
 H   -2.778677729387   -2.404187266216   -2.765198547714
 H   -1.686450010614   -1.462753862373   -3.831538731067
 H   -3.177142426771   -0.711056086611   -3.217467558424
