15

 C    2.908779584406    1.591833935554    3.143294469204
 H    3.040689584406    0.884733935554    3.969904469204
 H    2.627309584406    2.577303935554    3.528374469204
 H    3.853809584406    1.666373935554    2.591884469204
 C    1.863099584406    1.062433935554    2.135424469204
 O    1.152539584406    1.910273935554    1.497214469204
 O    1.801589584406   -0.201236064446    1.951694469204
RB   -0.196050415594   -0.090696064446   -0.148785530796
 C   -1.616996151812   -0.932515587494   -1.890122116680
 O   -1.436133716110    0.330511358666   -1.807702716492
 O   -1.106078766318   -1.779325233515   -1.082313495159
 C   -2.453376304106   -1.460535057978   -3.077993177545
 H   -2.862656312035   -2.453939208594   -2.868112385074
 H   -1.770428593261   -1.512505804751   -3.934452568428
 H   -3.261121009418   -0.760808028989   -3.320381395785
