15

 C    2.994863489498    1.642833146910    3.248788331196
 H    3.126773489498    0.935733146910    4.075398331196
 H    2.713393489498    2.628303146910    3.633868331196
 H    3.939893489498    1.717373146910    2.697378331196
 C    1.949183489498    1.113433146910    2.240918331196
 O    1.238623489498    1.961273146910    1.602708331196
 O    1.887673489498   -0.150236853090    2.057188331196
RB   -0.109966510502   -0.039696853090   -0.043291668804
 C   -1.826942608431   -1.056895443439   -2.147406710082
 O   -1.646080172730    0.206131502721   -2.064987309894
 O   -1.316025222937   -1.903705089461   -1.339598088560
 C   -2.663322760725   -1.584914913923   -3.335277770946
 H   -3.072602768654   -2.578319064539   -3.125396978476
 H   -1.980375049881   -1.636885660697   -4.191737161829
 H   -3.471067466038   -0.885187884934   -3.577665989186
