15

 C    3.012080270517    1.653032989181    3.269887103594
 H    3.143990270517    0.945932989181    4.096497103594
 H    2.730610270517    2.638502989181    3.654967103594
 H    3.957110270517    1.727572989181    2.718477103594
 C    1.966400270517    1.123632989181    2.262017103594
 O    1.255840270517    1.971472989181    1.623807103594
 O    1.904890270517   -0.140037010819    2.078287103594
RB   -0.092749729483   -0.029497010819   -0.022192896406
 C   -1.868931899755   -1.081771414628   -2.198863628762
 O   -1.688069464053    0.181255531531   -2.116444228574
 O   -1.358014514261   -1.928581060650   -1.391055007240
 C   -2.705312052049   -1.609790885112   -3.386734689626
 H   -3.114592059978   -2.603195035728   -3.176853897156
 H   -2.022364341205   -1.661761631886   -4.243194080509
 H   -3.513056757362   -0.910063856123   -3.629122907867
