15

 C    3.046513832554    1.673432673724    3.312084648391
 H    3.178423832554    0.966332673724    4.138694648391
 H    2.765043832554    2.658902673724    3.697164648391
 H    3.991543832554    1.747972673724    2.760674648391
 C    2.000833832554    1.144032673724    2.304214648391
 O    1.290273832554    1.991872673724    1.666004648391
 O    1.939323832554   -0.119637326276    2.120484648391
RB   -0.058316167446   -0.009097326276    0.020004648391
 C   -1.952910482403   -1.131523357006   -2.301777466122
 O   -1.772048046701    0.131503589153   -2.219358065934
 O   -1.441993096909   -1.978333003028   -1.493968844601
 C   -2.789290634697   -1.659542827490   -3.489648526987
 H   -3.198570642626   -2.652946978106   -3.279767734516
 H   -2.106342923852   -1.711513574264   -4.346107917870
 H   -3.597035340009   -0.959815798501   -3.732036745227
