15

 C    3.098164175610    1.704032200538    3.375380965586
 H    3.230074175610    0.996932200538    4.201990965586
 H    2.816694175610    2.689502200538    3.760460965586
 H    4.043194175610    1.778572200538    2.823970965586
 C    2.052484175610    1.174632200538    2.367510965586
 O    1.341924175610    2.022472200538    1.729300965586
 O    1.990974175610   -0.089037799462    2.183780965586
RB   -0.006665824390    0.021502200538    0.083300965586
 C   -2.078878356374   -1.206151270573   -2.456148222163
 O   -1.898015920673    0.056875675586   -2.373728821975
 O   -1.567960970881   -2.052960916595   -1.648339600641
 C   -2.915258508668   -1.734170741057   -3.644019283027
 H   -3.324538516597   -2.727574891674   -3.434138490557
 H   -2.232310797824   -1.786141487831   -4.500478673911
 H   -3.723003213981   -1.034443712068   -3.886407501268
