15

 C    3.132597737647    1.724431885080    3.417578510382
 H    3.264507737647    1.017331885080    4.244188510382
 H    2.851127737647    2.709901885080    3.802658510382
 H    4.077627737647    1.798971885080    2.866168510382
 C    2.086917737647    1.195031885080    2.409708510382
 O    1.376357737647    2.042871885080    1.771498510382
 O    2.025407737647   -0.068638114920    2.225978510382
RB    0.027767737647    0.041901885080    0.125498510382
 C   -2.162856939022   -1.255903212951   -2.559062059524
 O   -1.981994503321    0.007123733208   -2.476642659336
 O   -1.651939553528   -2.102712858973   -1.751253438002
 C   -2.999237091316   -1.783922683435   -3.746933120388
 H   -3.408517099245   -2.777326834052   -3.537052327918
 H   -2.316289380472   -1.835893430209   -4.603392511271
 H   -3.806981796629   -1.084195654446   -3.989321338628
