15

 C    3.149814518665    1.734631727351    3.438677282780
 H    3.281724518665    1.027531727351    4.265287282780
 H    2.868344518665    2.720101727351    3.823757282780
 H    4.094844518665    1.809171727351    2.887267282780
 C    2.104134518665    1.205231727351    2.430807282780
 O    1.393574518665    2.053071727351    1.792597282780
 O    2.042624518665   -0.058438272649    2.247077282780
RB    0.044984518665    0.052101727351    0.146597282780
 C   -2.204846230346   -1.280779184140   -2.610518978204
 O   -2.023983794644   -0.017752237981   -2.528099578016
 O   -1.693928844852   -2.127588830162   -1.802710356682
 C   -3.041226382640   -1.808798654624   -3.798390039068
 H   -3.450506390569   -2.802202805241   -3.588509246598
 H   -2.358278671795   -1.860769401398   -4.654849429951
 H   -3.848971087953   -1.109071625635   -4.040778257309
