15

 C    3.253115204777    1.795830780979    3.565269917170
 H    3.385025204777    1.088730780979    4.391879917170
 H    2.971645204777    2.781300780979    3.950349917170
 H    4.198145204777    1.870370780979    3.013859917170
 C    2.207435204777    1.266430780979    2.557399917170
 O    1.496875204777    2.114270780979    1.919189917170
 O    2.145925204777    0.002760780979    2.373669917170
RB    0.148285204777    0.113300780979    0.273189917170
 C   -2.456781978289   -1.430035011275   -2.919260490286
 O   -2.275919542588   -0.167008065115   -2.836841090098
 O   -1.945864592795   -2.276844657296   -2.111451868764
 C   -3.293162130583   -1.958054481759   -4.107131551150
 H   -3.702442138512   -2.951458632375   -3.897250758680
 H   -2.610214419739   -2.010025228532   -4.963590942033
 H   -4.100906835896   -1.258327452770   -4.349519769390
