15

 C    3.270331985795    1.806030623250    3.586368689568
 H    3.402241985795    1.098930623250    4.412978689568
 H    2.988861985795    2.791500623250    3.971448689568
 H    4.215361985795    1.880570623250    3.034958689568
 C    2.224651985795    1.276630623250    2.578498689568
 O    1.514091985795    2.124470623250    1.940288689568
 O    2.163141985795    0.012960623250    2.394768689568
RB    0.165501985795    0.123500623250    0.294288689568
 C   -2.498771269613   -1.454910982464   -2.970717408966
 O   -2.317908833911   -0.191884036304   -2.888298008778
 O   -1.987853884119   -2.301720628485   -2.162908787444
 C   -3.335151421907   -1.982930452948   -4.158588469830
 H   -3.744431429836   -2.976334603564   -3.948707677360
 H   -2.652203711062   -2.034901199721   -5.015047860713
 H   -4.142896127220   -1.283203423959   -4.400976688070
