15

 C    3.304765547832    1.826430307793    3.628566234365
 H    3.436675547832    1.119330307793    4.455176234365
 H    3.023295547832    2.811900307793    4.013646234365
 H    4.249795547832    1.900970307793    3.077156234365
 C    2.259085547832    1.297030307793    2.620696234365
 O    1.548525547832    2.144870307793    1.982486234365
 O    2.197575547832    0.033360307793    2.436966234365
RB    0.199935547832    0.143900307793    0.336486234365
 C   -2.582749852261   -1.504662924842   -3.073631246326
 O   -2.401887416559   -0.241635978682   -2.991211846138
 O   -2.071832466767   -2.351472570863   -2.265822624805
 C   -3.419130004555   -2.032682395326   -4.261502307191
 H   -3.828410012483   -3.026086545942   -4.051621514720
 H   -2.736182293710   -2.084653142100   -5.117961698074
 H   -4.226874709867   -1.332955366337   -4.503890525431
