15

 C    3.373632671906    1.867229676878    3.712961323958
 H    3.505542671906    1.160129676878    4.539571323958
 H    3.092162671906    2.852699676878    4.098041323958
 H    4.318662671906    1.941769676878    3.161551323958
 C    2.327952671906    1.337829676878    2.705091323958
 O    1.617392671906    2.185669676878    2.066881323958
 O    2.266442671906    0.074159676878    2.521361323958
RB    0.268802671906    0.184699676878    0.420881323958
 C   -2.750707017556   -1.604166809598   -3.279458921047
 O   -2.569844581855   -0.341139863438   -3.197039520859
 O   -2.239789632062   -2.450976455619   -2.471650299526
 C   -3.587087169850   -2.132186280082   -4.467329981912
 H   -3.996367177779   -3.125590430698   -4.257449189441
 H   -2.904139459006   -2.184157026856   -5.323789372795
 H   -4.394831875163   -1.432459251093   -4.709718200152
