15

 C    3.390849452925    1.877429519149    3.734060096356
 H    3.522759452925    1.170329519149    4.560670096356
 H    3.109379452925    2.862899519149    4.119140096356
 H    4.335879452925    1.951969519149    3.182650096356
 C    2.345169452925    1.348029519149    2.726190096356
 O    1.634609452925    2.195869519149    2.087980096356
 O    2.283659452925    0.084359519149    2.542460096356
RB    0.286019452925    0.194899519149    0.441980096356
 C   -2.792696308880   -1.629042780787   -3.330915839728
 O   -2.611833873178   -0.366015834628   -3.248496439540
 O   -2.281778923386   -2.475852426809   -2.523107218206
 C   -3.629076461174   -2.157062251271   -4.518786900592
 H   -4.038356469103   -3.150466401887   -4.308906108122
 H   -2.946128750329   -2.209032998045   -5.375246291475
 H   -4.436821166487   -1.457335222282   -4.761175118832
