15

 C    3.408066233944    1.887629361420    3.755158868754
 H    3.539976233944    1.180529361420    4.581768868754
 H    3.126596233944    2.873099361420    4.140238868754
 H    4.353096233944    1.962169361420    3.203748868754
 C    2.362386233944    1.358229361420    2.747288868754
 O    1.651826233944    2.206069361420    2.109078868754
 O    2.300876233944    0.094559361420    2.563558868754
RB    0.303236233944    0.205099361420    0.463078868754
 C   -2.834685600204   -1.653918751976   -3.382372758408
 O   -2.653823164502   -0.390891805817   -3.299953358220
 O   -2.323768214710   -2.500728397998   -2.574564136886
 C   -3.671065752498   -2.181938222460   -4.570243819272
 H   -4.080345760427   -3.175342373076   -4.360363026802
 H   -2.988118041653   -2.233908969234   -5.426703210155
 H   -4.478810457810   -1.482211193471   -4.812632037512
