15

 C    3.425283014962    1.897829203691    3.776257641153
 H    3.557193014962    1.190729203691    4.602867641153
 H    3.143813014962    2.883299203691    4.161337641153
 H    4.370313014962    1.972369203691    3.224847641153
 C    2.379603014962    1.368429203691    2.768387641153
 O    1.669043014962    2.216269203691    2.130177641153
 O    2.318093014962    0.104759203691    2.584657641153
RB    0.320453014962    0.215299203691    0.484177641153
 C   -2.876674891528   -1.678794723165   -3.433829677088
 O   -2.695812455826   -0.415767777006   -3.351410276900
 O   -2.365757506034   -2.525604369187   -2.626021055566
 C   -3.713055043822   -2.206814193649   -4.621700737952
 H   -4.122335051750   -3.200218344265   -4.411819945482
 H   -3.030107332977   -2.258784940423   -5.478160128836
 H   -4.520799749134   -1.507087164660   -4.864088956193
