15

 C    3.442499795981    1.908029045963    3.797356413551
 H    3.574409795981    1.200929045963    4.623966413551
 H    3.161029795981    2.893499045963    4.182436413551
 H    4.387529795981    1.982569045963    3.245946413551
 C    2.396819795981    1.378629045963    2.789486413551
 O    1.686259795981    2.226469045963    2.151276413551
 O    2.335309795981    0.114959045963    2.605756413551
RB    0.337669795981    0.225499045963    0.505276413551
 C   -2.918664182852   -1.703670694354   -3.485286595768
 O   -2.737801747150   -0.440643748195   -3.402867195580
 O   -2.407746797358   -2.550480340376   -2.677477974247
 C   -3.755044335145   -2.231690164838   -4.673157656633
 H   -4.164324343074   -3.225094315454   -4.463276864162
 H   -3.072096624301   -2.283660911612   -5.529617047516
 H   -4.562789040458   -1.531963135849   -4.915545874873
