15

 C    3.459716576999    1.918228888234    3.818455185949
 H    3.591626576999    1.211128888234    4.645065185949
 H    3.178246576999    2.903698888234    4.203535185949
 H    4.404746576999    1.992768888234    3.267045185949
 C    2.414036576999    1.388828888234    2.810585185949
 O    1.703476576999    2.236668888234    2.172375185949
 O    2.352526576999    0.125158888234    2.626855185949
RB    0.354886576999    0.235698888234    0.526375185949
 C   -2.960653474176   -1.728546665543   -3.536743514449
 O   -2.779791038474   -0.465519719384   -3.454324114261
 O   -2.449736088682   -2.575356311565   -2.728934892927
 C   -3.797033626469   -2.256566136027   -4.724614575313
 H   -4.206313634398   -3.249970286644   -4.514733782843
 H   -3.114085915625   -2.308536882801   -5.581073966196
 H   -4.604778331782   -1.556839107038   -4.967002793553
