15

 C    3.494150139036    1.938628572777    3.860652730746
 H    3.626060139036    1.231528572777    4.687262730746
 H    3.212680139036    2.924098572777    4.245732730746
 H    4.439180139036    2.013168572777    3.309242730746
 C    2.448470139036    1.409228572777    2.852782730746
 O    1.737910139036    2.257068572777    2.214572730746
 O    2.386960139036    0.145558572777    2.669052730746
RB    0.389320139036    0.256098572777    0.568572730746
 C   -3.044632056823   -1.778298607921   -3.639657351809
 O   -2.863769621122   -0.515271661762   -3.557237951621
 O   -2.533714671329   -2.625108253943   -2.831848730287
 C   -3.881012209117   -2.306318078405   -4.827528412673
 H   -4.290292217046   -3.299722229022   -4.617647620203
 H   -3.198064498273   -2.358288825179   -5.683987803557
 H   -4.688756914430   -1.606591049416   -5.069916630914
