15

 C    3.528583701073    1.959028257319    3.902850275542
 H    3.660493701073    1.251928257319    4.729460275542
 H    3.247113701073    2.944498257319    4.287930275542
 H    4.473613701073    2.033568257319    3.351440275542
 C    2.482903701073    1.429628257319    2.894980275542
 O    1.772343701073    2.277468257319    2.256770275542
 O    2.421393701073    0.165958257319    2.711250275542
RB    0.423753701073    0.276498257319    0.610770275542
 C   -3.128610639471   -1.828050550299   -3.742571189170
 O   -2.947748203769   -0.565023604140   -3.660151788982
 O   -2.617693253977   -2.674860196321   -2.934762567648
 C   -3.964990791765   -2.356070020783   -4.930442250034
 H   -4.374270799694   -3.349474171400   -4.720561457564
 H   -3.282043080920   -2.408040767557   -5.786901640917
 H   -4.772735497077   -1.656342991794   -5.172830468274
