15

 C    3.649101168203    2.030427153218    4.050541682330
 H    3.781011168203    1.323327153218    4.877151682330
 H    3.367631168203    3.015897153218    4.435621682330
 H    4.594131168203    2.104967153218    3.499131682330
 C    2.603421168203    1.501027153218    3.042671682330
 O    1.892861168203    2.348867153218    2.404461682330
 O    2.541911168203    0.237357153218    2.858941682330
RB    0.544271168203    0.347897153218    0.758461682330
 C   -3.422535678738   -2.002182348623   -4.102769619931
 O   -3.241673243036   -0.739155402463   -4.020350219744
 O   -2.911618293244   -2.848991994644   -3.294960998410
 C   -4.258915831032   -2.530201819107   -5.290640680796
 H   -4.668195838961   -3.523605969723   -5.080759888326
 H   -3.575968120187   -2.582172565880   -6.147100071679
 H   -5.066660536344   -1.830474790118   -5.533028899036
