15

 C    3.666317949222    2.040626995489    4.071640454729
 H    3.798227949222    1.333526995489    4.898250454729
 H    3.384847949222    3.026096995489    4.456720454729
 H    4.611347949222    2.115166995489    3.520230454729
 C    2.620637949222    1.511226995489    3.063770454729
 O    1.910077949222    2.359066995489    2.425560454729
 O    2.559127949222    0.247556995489    2.880040454729
RB    0.561487949222    0.358096995489    0.779560454729
 C   -3.464524970062   -2.027058319812   -4.154226538612
 O   -3.283662534360   -0.764031373652   -4.071807138424
 O   -2.953607584568   -2.873867965833   -3.346417917090
 C   -4.300905122356   -2.555077790296   -5.342097599476
 H   -4.710185130284   -3.548481940912   -5.132216807006
 H   -3.617957411511   -2.607048537069   -6.198556990359
 H   -5.108649827668   -1.855350761307   -5.584485817716
