15

 C    3.683534730240    2.050826837760    4.092739227127
 H    3.815444730240    1.343726837760    4.919349227127
 H    3.402064730240    3.036296837760    4.477819227127
 H    4.628564730240    2.125366837760    3.541329227127
 C    2.637854730240    1.521426837760    3.084869227127
 O    1.927294730240    2.369266837760    2.446659227127
 O    2.576344730240    0.257756837760    2.901139227127
RB    0.578704730240    0.368296837760    0.800659227127
 C   -3.506514261386   -2.051934291001   -4.205683457292
 O   -3.325651825684   -0.788907344841   -4.123264057104
 O   -2.995596875892   -2.898743937022   -3.397874835770
 C   -4.342894413680   -2.579953761485   -5.393554518156
 H   -4.752174421608   -3.573357912101   -5.183673725686
 H   -3.659946702835   -2.631924508258   -6.250013909040
 H   -5.150639118992   -1.880226732496   -5.635942736397
