15

 C    3.752401854314    2.091626206845    4.177134316720
 H    3.884311854314    1.384526206845    5.003744316720
 H    3.470931854314    3.077096206845    4.562214316720
 H    4.697431854314    2.166166206845    3.625724316720
 C    2.706721854314    1.562226206845    3.169264316720
 O    1.996161854314    2.410066206845    2.531054316720
 O    2.645211854314    0.298556206845    2.985534316720
RB    0.647571854314    0.409096206845    0.885054316720
 C   -3.674471426681   -2.151438175757   -4.411511132013
 O   -3.493608990980   -0.888411229597   -4.329091731825
 O   -3.163554041187   -2.998247821778   -3.603702510491
 C   -4.510851578975   -2.679457646241   -5.599382192877
 H   -4.920131586904   -3.672861796857   -5.389501400407
 H   -3.827903868131   -2.731428393015   -6.455841583761
 H   -5.318596284288   -1.979730617252   -5.841770411118
