15

 C    3.769618635333    2.101826049117    4.198233089118
 H    3.901528635333    1.394726049117    5.024843089118
 H    3.488148635333    3.087296049117    4.583313089118
 H    4.714648635333    2.176366049117    3.646823089118
 C    2.723938635333    1.572426049117    3.190363089118
 O    2.013378635333    2.420266049117    2.552153089118
 O    2.662428635333    0.308756049117    3.006633089118
RB    0.664788635333    0.419296049117    0.906153089118
 C   -3.716460718005   -2.176314146946   -4.462968050693
 O   -3.535598282303   -0.913287200786   -4.380548650505
 O   -3.205543332511   -3.023123792968   -3.655159429172
 C   -4.552840870299   -2.704333617430   -5.650839111558
 H   -4.962120878228   -3.697737768046   -5.440958319087
 H   -3.869893159454   -2.756304364204   -6.507298502441
 H   -5.360585575612   -2.004606588441   -5.893227329798
