15

 C    3.804052197370    2.122225733659    4.240430633915
 H    3.935962197370    1.415125733659    5.067040633915
 H    3.522582197370    3.107695733659    4.625510633915
 H    4.749082197370    2.196765733659    3.689020633915
 C    2.758372197370    1.592825733659    3.232560633915
 O    2.047812197370    2.440665733659    2.594350633915
 O    2.696862197370    0.329155733659    3.048830633915
RB    0.699222197370    0.439695733659    0.948350633915
 C   -3.800439300653   -2.226066089324   -4.565881888054
 O   -3.619576864951   -0.963039143165   -4.483462487866
 O   -3.289521915159   -3.072875735346   -3.758073266532
 C   -4.636819452947   -2.754085559808   -5.753752948918
 H   -5.046099460875   -3.747489710424   -5.543872156448
 H   -3.953871742102   -2.806056306582   -6.610212339801
 H   -5.444564158259   -2.054358530819   -5.996141167158
