15

 C    3.838485759407    2.142625418202    4.282628178711
 H    3.970395759407    1.435525418202    5.109238178711
 H    3.557015759407    3.128095418202    4.667708178711
 H    4.783515759407    2.217165418202    3.731218178711
 C    2.792805759407    1.613225418202    3.274758178711
 O    2.082245759407    2.461065418202    2.636548178711
 O    2.731295759407    0.349555418202    3.091028178711
RB    0.733655759407    0.460095418202    0.990548178711
 C   -3.884417883300   -2.275818031702   -4.668795725414
 O   -3.703555447599   -1.012791085543   -4.586376325226
 O   -3.373500497807   -3.122627677724   -3.860987103893
 C   -4.720798035594   -2.803837502186   -5.856666786279
 H   -5.130078043523   -3.797241652802   -5.646785993808
 H   -4.037850324750   -2.855808248960   -6.713126177162
 H   -5.528542740907   -2.104110473197   -6.099055004519
