15

 C    3.855702540426    2.152825260473    4.303726951110
 H    3.987612540426    1.445725260473    5.130336951110
 H    3.574232540426    3.138295260473    4.688806951110
 H    4.800732540426    2.227365260473    3.752316951110
 C    2.810022540426    1.623425260473    3.295856951110
 O    2.099462540426    2.471265260473    2.657646951110
 O    2.748512540426    0.359755260473    3.112126951110
RB    0.750872540426    0.470295260473    1.011646951110
 C   -3.926407174624   -2.300694002891   -4.720252644095
 O   -3.745544738923   -1.037667056732   -4.637833243907
 O   -3.415489789130   -3.147503648913   -3.912444022573
 C   -4.762787326918   -2.828713473375   -5.908123704959
 H   -5.172067334847   -3.822117623992   -5.698242912489
 H   -4.079839616074   -2.880684220149   -6.764583095842
 H   -5.570532032231   -2.128986444386   -6.150511923199
