15

 C    3.890136102463    2.173224945016    4.345924495906
 H    4.022046102463    1.466124945016    5.172534495906
 H    3.608666102463    3.158694945016    4.731004495906
 H    4.835166102463    2.247764945016    3.794514495906
 C    2.844456102463    1.643824945016    3.338054495906
 O    2.133896102463    2.491664945016    2.699844495906
 O    2.782946102463    0.380154945016    3.154324495906
RB    0.785306102463    0.490694945016    1.053844495906
 C   -4.010385757272   -2.350445945269   -4.823166481455
 O   -3.829523321570   -1.087418999110   -4.740747081267
 O   -3.499468371778   -3.197255591291   -4.015357859933
 C   -4.846765909566   -2.878465415753   -6.011037542319
 H   -5.256045917495   -3.871869566370   -5.801156749849
 H   -4.163818198721   -2.930436162527   -6.867496933203
 H   -5.654510614879   -2.178738386764   -6.253425760560
