15

 C    3.907352883481    2.183424787287    4.367023268305
 H    4.039262883481    1.476324787287    5.193633268305
 H    3.625882883481    3.168894787287    4.752103268305
 H    4.852382883481    2.257964787287    3.815613268305
 C    2.861672883481    1.654024787287    3.359153268305
 O    2.151112883481    2.501864787287    2.720943268305
 O    2.800162883481    0.390354787287    3.175423268305
RB    0.802522883481    0.500894787287    1.074943268305
 C   -4.052375048596   -2.375321916458   -4.874623400135
 O   -3.871512612894   -1.112294970299   -4.792203999947
 O   -3.541457663102   -3.222131562480   -4.066814778614
 C   -4.888755200890   -2.903341386942   -6.062494461000
 H   -5.298035208819   -3.896745537559   -5.852613668529
 H   -4.205807490045   -2.955312133716   -6.918953851883
 H   -5.696499906202   -2.203614357953   -6.304882679240
