15

 C    3.959003226537    2.214024314101    4.430319585499
 H    4.090913226537    1.506924314101    5.256929585499
 H    3.677533226537    3.199494314101    4.815399585499
 H    4.904033226537    2.288564314101    3.878909585499
 C    2.913323226537    1.684624314101    3.422449585499
 O    2.202763226537    2.532464314101    2.784239585499
 O    2.851813226537    0.420954314101    3.238719585499
RB    0.854173226537    0.531494314101    1.138239585499
 C   -4.178342922567   -2.449949830025   -5.028994156176
 O   -3.997480486866   -1.186922883866   -4.946574755988
 O   -3.667425537074   -3.296759476047   -4.221185534654
 C   -5.014723074861   -2.977969300509   -6.216865217040
 H   -5.424003082790   -3.971373451126   -6.006984424570
 H   -4.331775364017   -3.029940047283   -7.073324607924
 H   -5.822467780174   -2.278242271521   -6.459253435281
