15

 C    3.993436788574    2.234423998643    4.472517130296
 H    4.125346788574    1.527323998643    5.299127130296
 H    3.711966788574    3.219893998643    4.857597130296
 H    4.938466788574    2.308963998643    3.921107130296
 C    2.947756788574    1.705023998643    3.464647130296
 O    2.237196788574    2.552863998643    2.826437130296
 O    2.886246788574    0.441353998643    3.280917130296
RB    0.888606788574    0.551893998643    1.180437130296
 C   -4.262321505215   -2.499701772403   -5.131907993537
 O   -4.081459069514   -1.236674826244   -5.049488593349
 O   -3.751404119721   -3.346511418425   -4.324099372015
 C   -5.098701657509   -3.027721242887   -6.319779054401
 H   -5.507981665438   -4.021125393504   -6.109898261931
 H   -4.415753946665   -3.079691989661   -7.176238445284
 H   -5.906446362822   -2.327994213899   -6.562167272641
