15

 C    4.045087131630    2.265023525457    4.535813447491
 H    4.176997131630    1.557923525457    5.362423447491
 H    3.763617131630    3.250493525457    4.920893447491
 H    4.990117131630    2.339563525457    3.984403447491
 C    2.999407131630    1.735623525457    3.527943447491
 O    2.288847131630    2.583463525457    2.889733447491
 O    2.937897131630    0.471953525457    3.344213447491
RB    0.940257131630    0.582493525457    1.243733447491
 C   -4.388289379187   -2.574329685971   -5.286278749577
 O   -4.207426943485   -1.311302739811   -5.203859349389
 O   -3.877371993693   -3.421139331992   -4.478470128056
 C   -5.224669531481   -3.102349156455   -6.474149810442
 H   -5.633949539409   -4.095753307071   -6.264269017971
 H   -4.541721820636   -3.154319903228   -7.330609201325
 H   -6.032414236793   -2.402622127466   -6.716538028682
