15

 C    4.096737474685    2.295623052271    4.599109764686
 H    4.228647474685    1.588523052271    5.425719764686
 H    3.815267474685    3.281093052271    4.984189764686
 H    5.041767474685    2.370163052271    4.047699764686
 C    3.051057474685    1.766223052271    3.591239764686
 O    2.340497474685    2.614063052271    2.953029764686
 O    2.989547474685    0.502553052271    3.407509764686
RB    0.991907474685    0.613093052271    1.307029764686
 C   -4.514257253158   -2.648957599538   -5.440649505618
 O   -4.333394817457   -1.385930653378   -5.358230105430
 O   -4.003339867664   -3.495767245559   -4.632840884096
 C   -5.350637405452   -3.176977070022   -6.628520566482
 H   -5.759917413381   -4.170381220638   -6.418639774012
 H   -4.667689694608   -3.228947816796   -7.484979957366
 H   -6.158382110765   -2.477250041033   -6.870908784723
