9

 C   -1.633432262297   -0.324305045684    0.000000000000
 H   -2.612359262297    0.167482954316    0.000000000000
 H   -1.526286262297   -0.964114045684    0.888272000000
 H   -1.526286262297   -0.964114045684   -0.888272000000
 C   -0.548805262297    0.721278954316    0.000000000000
 O   -0.709909262297    1.930829954316    0.000000000000
 O    0.693480737703    0.144270954316    0.000000000000
 H    1.328016737703    0.882833954316    0.000000000000
 K    0.791004693132   -0.951397370551    0.000000000000
