9

 C   -1.636922140080   -0.285096745243    0.000000000000
 H   -2.615849140080    0.206691254757    0.000000000000
 H   -1.529776140080   -0.924905745243    0.888272000000
 H   -1.529776140080   -0.924905745243   -0.888272000000
 C   -0.552295140080    0.760487254757    0.000000000000
 O   -0.713399140080    1.970038254757    0.000000000000
 O    0.689990859920    0.183479254757    0.000000000000
 H    1.324526859920    0.922042254757    0.000000000000
 K    0.796380629479   -1.011795281462    0.000000000000
