9

 C   -1.647391773430   -0.167471843919    0.000000000000
 H   -2.626318773430    0.324316156081    0.000000000000
 H   -1.540245773430   -0.807280843919    0.888272000000
 H   -1.540245773430   -0.807280843919   -0.888272000000
 C   -0.562764773430    0.878112156081    0.000000000000
 O   -0.723868773430    2.087663156081    0.000000000000
 O    0.679521226570    0.301104156081    0.000000000000
 H    1.314057226570    1.039667156081    0.000000000000
 K    0.812508438519   -1.192989014192    0.000000000000
