9

 C   -1.678800673479    0.185402860054    0.000000000000
 H   -2.657727673479    0.677190860054    0.000000000000
 H   -1.571654673479   -0.454406139946    0.888272000000
 H   -1.571654673479   -0.454406139946   -0.888272000000
 C   -0.594173673479    1.230986860054    0.000000000000
 O   -0.755277673479    2.440537860054    0.000000000000
 O    0.648112326521    0.653978860054    0.000000000000
 H    1.282648326521    1.392541860054    0.000000000000
 K    0.860891865640   -1.736570212384    0.000000000000
