9

 C   -1.685780429045    0.263819460937    0.000000000000
 H   -2.664707429045    0.755607460937    0.000000000000
 H   -1.578634429045   -0.375989539063    0.888272000000
 H   -1.578634429045   -0.375989539063   -0.888272000000
 C   -0.601153429045    1.309403460937    0.000000000000
 O   -0.762257429045    2.518954460937    0.000000000000
 O    0.641132570955    0.732395460937    0.000000000000
 H    1.275668570955    1.470958460937    0.000000000000
 K    0.871643738334   -1.857366034204    0.000000000000
