9

 C   -1.692760184612    0.342236061820    0.000000000000
 H   -2.671687184612    0.834024061820    0.000000000000
 H   -1.585614184612   -0.297572938180    0.888272000000
 H   -1.585614184612   -0.297572938180   -0.888272000000
 C   -0.608133184612    1.387820061820    0.000000000000
 O   -0.769237184612    2.597371061820    0.000000000000
 O    0.634152815388    0.810812061820    0.000000000000
 H    1.268688815388    1.549375061820    0.000000000000
 K    0.882395611027   -1.978161856024    0.000000000000
