9

 C   -1.696250062395    0.381444362261    0.000000000000
 H   -2.675177062395    0.873232362261    0.000000000000
 H   -1.589104062395   -0.258364637739    0.888272000000
 H   -1.589104062395   -0.258364637739   -0.888272000000
 C   -0.611623062395    1.427028362261    0.000000000000
 O   -0.772727062395    2.636579362261    0.000000000000
 O    0.630662937605    0.850020362261    0.000000000000
 H    1.265198937605    1.588583362261    0.000000000000
 K    0.887771547374   -2.038559766934    0.000000000000
