9

 C   -1.703229817961    0.459860963144    0.000000000000
 H   -2.682156817961    0.951648963144    0.000000000000
 H   -1.596083817961   -0.179948036856    0.888272000000
 H   -1.596083817961   -0.179948036856   -0.888272000000
 C   -0.618602817961    1.505444963144    0.000000000000
 O   -0.779706817961    2.714995963144    0.000000000000
 O    0.623683182039    0.928436963144    0.000000000000
 H    1.258219182039    1.666999963144    0.000000000000
 K    0.898523420068   -2.159355588755    0.000000000000
