9

 C   -1.710209573528    0.538277564027    0.000000000000
 H   -2.689136573528    1.030065564027    0.000000000000
 H   -1.603063573528   -0.101531435973    0.888272000000
 H   -1.603063573528   -0.101531435973   -0.888272000000
 C   -0.625582573528    1.583861564027    0.000000000000
 O   -0.786686573528    2.793412564027    0.000000000000
 O    0.616703426472    1.006853564027    0.000000000000
 H    1.251239426472    1.745416564027    0.000000000000
 K    0.909275292761   -2.280151410575    0.000000000000
