9

 C   -1.713699451311    0.577485864468    0.000000000000
 H   -2.692626451311    1.069273864468    0.000000000000
 H   -1.606553451311   -0.062323135532    0.888272000000
 H   -1.606553451311   -0.062323135532   -0.888272000000
 C   -0.629072451311    1.623069864468    0.000000000000
 O   -0.790176451311    2.832620864468    0.000000000000
 O    0.613213548689    1.046061864468    0.000000000000
 H    1.247749548689    1.784624864468    0.000000000000
 K    0.914651229108   -2.340549321485    0.000000000000
