9

 C   -1.731148840227    0.773527366675    0.000000000000
 H   -2.710075840227    1.265315366675    0.000000000000
 H   -1.624002840227    0.133718366675    0.888272000000
 H   -1.624002840227    0.133718366675   -0.888272000000
 C   -0.646521840227    1.819111366675    0.000000000000
 O   -0.807625840227    3.028662366675    0.000000000000
 O    0.595764159773    1.242103366675    0.000000000000
 H    1.230300159773    1.980666366675    0.000000000000
 K    0.941530910842   -2.642538876036    0.000000000000
