9

 C   -1.738128595794    0.851943967558    0.000000000000
 H   -2.717055595794    1.343731967558    0.000000000000
 H   -1.630982595794    0.212134967558    0.888272000000
 H   -1.630982595794    0.212134967558   -0.888272000000
 C   -0.653501595794    1.897527967558    0.000000000000
 O   -0.814605595794    3.107078967558    0.000000000000
 O    0.588784404206    1.320519967558    0.000000000000
 H    1.223320404206    2.059082967558    0.000000000000
 K    0.952282783535   -2.763334697856    0.000000000000
