9

 C   -1.741618473577    0.891152267999    0.000000000000
 H   -2.720545473577    1.382940267999    0.000000000000
 H   -1.634472473577    0.251343267999    0.888272000000
 H   -1.634472473577    0.251343267999   -0.888272000000
 C   -0.656991473577    1.936736267999    0.000000000000
 O   -0.818095473577    3.146287267999    0.000000000000
 O    0.585294526423    1.359728267999    0.000000000000
 H    1.219830526423    2.098291267999    0.000000000000
 K    0.957658719882   -2.823732608766    0.000000000000
