9

 C   -1.748598229143    0.969568868882    0.000000000000
 H   -2.727525229143    1.461356868882    0.000000000000
 H   -1.641452229143    0.329759868882    0.888272000000
 H   -1.641452229143    0.329759868882   -0.888272000000
 C   -0.663971229143    2.015152868882    0.000000000000
 O   -0.825075229143    3.224703868882    0.000000000000
 O    0.578314770857    1.438144868882    0.000000000000
 H    1.212850770857    2.176707868882    0.000000000000
 K    0.968410592575   -2.944528430587    0.000000000000
