9

 C   -1.755577984710    1.047985469765    0.000000000000
 H   -2.734504984710    1.539773469765    0.000000000000
 H   -1.648431984710    0.408176469765    0.888272000000
 H   -1.648431984710    0.408176469765   -0.888272000000
 C   -0.670950984710    2.093569469765    0.000000000000
 O   -0.832054984710    3.303120469765    0.000000000000
 O    0.571335015290    1.516561469765    0.000000000000
 H    1.205871015290    2.255124469765    0.000000000000
 K    0.979162465269   -3.065324252407    0.000000000000
