9

 C   -1.759067862493    1.087193770206    0.000000000000
 H   -2.737994862493    1.578981770206    0.000000000000
 H   -1.651921862493    0.447384770206    0.888272000000
 H   -1.651921862493    0.447384770206   -0.888272000000
 C   -0.674440862493    2.132777770206    0.000000000000
 O   -0.835544862493    3.342328770206    0.000000000000
 O    0.567845137507    1.555769770206    0.000000000000
 H    1.202381137507    2.294332770206    0.000000000000
 K    0.984538401616   -3.125722163317    0.000000000000
