9

 C   -1.776517251409    1.283235272413    0.000000000000
 H   -2.755444251409    1.775023272413    0.000000000000
 H   -1.669371251409    0.643426272413    0.888272000000
 H   -1.669371251409    0.643426272413   -0.888272000000
 C   -0.691890251409    2.328819272413    0.000000000000
 O   -0.852994251409    3.538370272413    0.000000000000
 O    0.550395748591    1.751811272413    0.000000000000
 H    1.184931748591    2.490374272413    0.000000000000
 K    1.011418083350   -3.427711717868    0.000000000000
