9

 C   -1.780007129192    1.322443572855    0.000000000000
 H   -2.758934129192    1.814231572855    0.000000000000
 H   -1.672861129192    0.682634572855    0.888272000000
 H   -1.672861129192    0.682634572855   -0.888272000000
 C   -0.695380129192    2.368027572855    0.000000000000
 O   -0.856484129192    3.577578572855    0.000000000000
 O    0.546905870808    1.791019572855    0.000000000000
 H    1.181441870808    2.529582572855    0.000000000000
 K    1.016794019696   -3.488109628778    0.000000000000
