9

 C   -1.793966640325    1.479276774620    0.000000000000
 H   -2.772893640325    1.971064774620    0.000000000000
 H   -1.686820640325    0.839467774620    0.888272000000
 H   -1.686820640325    0.839467774620   -0.888272000000
 C   -0.709339640325    2.524860774620    0.000000000000
 O   -0.870443640325    3.734411774620    0.000000000000
 O    0.532946359675    1.947852774620    0.000000000000
 H    1.167482359675    2.686415774620    0.000000000000
 K    1.038297765083   -3.729701272419    0.000000000000
