9

 C   -1.800946395891    1.557693375503    0.000000000000
 H   -2.779873395891    2.049481375503    0.000000000000
 H   -1.693800395891    0.917884375503    0.888272000000
 H   -1.693800395891    0.917884375503   -0.888272000000
 C   -0.716319395891    2.603277375503    0.000000000000
 O   -0.877423395891    3.812828375503    0.000000000000
 O    0.525966604109    2.026269375503    0.000000000000
 H    1.160502604109    2.764832375503    0.000000000000
 K    1.049049637777   -3.850497094239    0.000000000000
