9

 C   -1.814905907024    1.714526577269    0.000000000000
 H   -2.793832907024    2.206314577269    0.000000000000
 H   -1.707759907024    1.074717577269    0.888272000000
 H   -1.707759907024    1.074717577269   -0.888272000000
 C   -0.730278907024    2.760110577269    0.000000000000
 O   -0.891382907024    3.969661577269    0.000000000000
 O    0.512007092976    2.183102577269    0.000000000000
 H    1.146543092976    2.921665577269    0.000000000000
 K    1.070553383164   -4.092088737880    0.000000000000
