9

 C   -1.818395784807    1.753734877710    0.000000000000
 H   -2.797322784807    2.245522877710    0.000000000000
 H   -1.711249784807    1.113925877710    0.888272000000
 H   -1.711249784807    1.113925877710   -0.888272000000
 C   -0.733768784807    2.799318877710    0.000000000000
 O   -0.894872784807    4.008869877710    0.000000000000
 O    0.508517215193    2.222310877710    0.000000000000
 H    1.143053215193    2.960873877710    0.000000000000
 K    1.075929319511   -4.152486648790    0.000000000000
