9

 C   -1.821885662591    1.792943178152    0.000000000000
 H   -2.800812662591    2.284731178152    0.000000000000
 H   -1.714739662591    1.153134178152    0.888272000000
 H   -1.714739662591    1.153134178152   -0.888272000000
 C   -0.737258662591    2.838527178152    0.000000000000
 O   -0.898362662591    4.048078178152    0.000000000000
 O    0.505027337409    2.261519178152    0.000000000000
 H    1.139563337409    3.000082178152    0.000000000000
 K    1.081305255857   -4.212884559700    0.000000000000
