9

 C   -1.835845173723    1.949776379917    0.000000000000
 H   -2.814772173723    2.441564379917    0.000000000000
 H   -1.728699173723    1.309967379917    0.888272000000
 H   -1.728699173723    1.309967379917   -0.888272000000
 C   -0.751218173723    2.995360379917    0.000000000000
 O   -0.912322173723    4.204911379917    0.000000000000
 O    0.491067826277    2.418352379917    0.000000000000
 H    1.125603826277    3.156915379917    0.000000000000
 K    1.102809001244   -4.454476203341    0.000000000000
