9

 C   -1.860274318206    2.224234483007    0.000000000000
 H   -2.839201318206    2.716022483007    0.000000000000
 H   -1.753128318206    1.584425483007    0.888272000000
 H   -1.753128318206    1.584425483007   -0.888272000000
 C   -0.775647318206    3.269818483007    0.000000000000
 O   -0.936751318206    4.479369483007    0.000000000000
 O    0.466638681794    2.692810483007    0.000000000000
 H    1.101174681794    3.431373483007    0.000000000000
 K    1.140440555672   -4.877261579712    0.000000000000
