9

 C   -1.874233829339    2.381067684773    0.000000000000
 H   -2.853160829339    2.872855684773    0.000000000000
 H   -1.767087829339    1.741258684773    0.888272000000
 H   -1.767087829339    1.741258684773   -0.888272000000
 C   -0.789606829339    3.426651684773    0.000000000000
 O   -0.950710829339    4.636202684773    0.000000000000
 O    0.452679170661    2.849643684773    0.000000000000
 H    1.087215170661    3.588206684773    0.000000000000
 K    1.161944301059   -5.118853223353    0.000000000000
