9

 C   -1.881213584905    2.459484285656    0.000000000000
 H   -2.860140584905    2.951272285656    0.000000000000
 H   -1.774067584905    1.819675285656    0.888272000000
 H   -1.774067584905    1.819675285656   -0.888272000000
 C   -0.796586584905    3.505068285656    0.000000000000
 O   -0.957690584905    4.714619285656    0.000000000000
 O    0.445699415095    2.928060285656    0.000000000000
 H    1.080235415095    3.666623285656    0.000000000000
 K    1.172696173752   -5.239649045173    0.000000000000
