9

 C   -1.940541507220    3.126025393159    0.000000000000
 H   -2.919468507220    3.617813393159    0.000000000000
 H   -1.833395507220    2.486216393159    0.888272000000
 H   -1.833395507220    2.486216393159   -0.888272000000
 C   -0.855914507220    4.171609393159    0.000000000000
 O   -1.017018507220    5.381160393159    0.000000000000
 O    0.386371492780    3.594601393159    0.000000000000
 H    1.020907492780    4.333164393159    0.000000000000
 K    1.264087091647   -6.266413530646    0.000000000000
