13

 N    0.207483860477    1.702522665176    0.000017314393
 C    1.381223443560    2.429894856686   -0.000295164777
 H    1.263506583497    3.515213315730   -0.000411012336
 C    0.161707887397    0.309310873309   -0.000367740176
 O   -0.889880281159   -0.324792440532   -0.000024373072
 N    1.422148428538   -0.274159182823    0.000049163146
 H    1.431964225661   -1.292444294689    0.000021859051
 C    2.683402717771    0.361896304140    0.000066257982
 O    3.717095645839   -0.307367530276   -0.000679407682
 C    2.601923926011    1.822443365530   -0.000433639465
 H    3.525324064313    2.399503624396   -0.000774316242
 H   -0.696253315471    2.162176786536   -0.000184337207
RB   -1.831875141992   -0.892811443347    0.000283209361
