13

 N    0.429019303058    1.836107620270   -0.000055021893
 C    1.602758886141    2.563479811780   -0.000367501063
 H    1.485042026078    3.648798270824   -0.000483348622
 C    0.383243329978    0.442895828403   -0.000440076462
 O   -0.668344838578   -0.191207485438   -0.000096709358
 N    1.643683871119   -0.140574227729   -0.000023173140
 H    1.653499668242   -1.158859339595   -0.000050477235
 C    2.904938160352    0.495481259234   -0.000006078304
 O    3.938631088420   -0.173782575182   -0.000751743968
 C    2.823459368592    1.956028320624   -0.000505975751
 H    3.746859506894    2.533088579490   -0.000846652528
 H   -0.474717872890    2.295761741630   -0.000256673493
RB   -2.124155078046   -1.069055035243    0.000378645311
