13

 N    0.502864450585    1.880635938635   -0.000079133989
 C    1.676604033668    2.608008130145   -0.000391613159
 H    1.558887173605    3.693326589189   -0.000507460718
 C    0.457088477505    0.487424146768   -0.000464188558
 O   -0.594499691051   -0.146679167073   -0.000120821454
 N    1.717529018646   -0.096045909364   -0.000047285236
 H    1.727344815769   -1.114331021230   -0.000074589331
 C    2.978783307879    0.540009577599   -0.000030190400
 O    4.012476235947   -0.129254256817   -0.000775856064
 C    2.897304516119    2.000556638989   -0.000530087847
 H    3.820704654421    2.577616897855   -0.000870764624
 H   -0.400872725363    2.340290059995   -0.000280785589
RB   -2.221581723398   -1.127802899208    0.000410457294
