13

 N    0.539787024349    1.902900097817   -0.000091190037
 C    1.713526607432    2.630272289327   -0.000403669207
 H    1.595809747369    3.715590748371   -0.000519516766
 C    0.494011051269    0.509688305950   -0.000476244606
 O   -0.557577117287   -0.124415007891   -0.000132877502
 N    1.754451592410   -0.073781750182   -0.000059341284
 H    1.764267389533   -1.092066862048   -0.000086645379
 C    3.015705881643    0.562273736781   -0.000042246448
 O    4.049398809711   -0.106990097635   -0.000787912112
 C    2.934227089883    2.022820798171   -0.000542143895
 H    3.857627228185    2.599881057037   -0.000882820672
 H   -0.363950151599    2.362554219177   -0.000292841637
RB   -2.270295046073   -1.157176831190    0.000426363285
