13

 N    0.576709598112    1.925164256999   -0.000103246085
 C    1.750449181195    2.652536448509   -0.000415725255
 H    1.632732321132    3.737854907553   -0.000531572814
 C    0.530933625032    0.531952465132   -0.000488300654
 O   -0.520654543524   -0.102150848709   -0.000144933550
 N    1.791374166173   -0.051517591000   -0.000071397332
 H    1.801189963296   -1.069802702866   -0.000098701427
 C    3.052628455406    0.584537895963   -0.000054302496
 O    4.086321383474   -0.084725938453   -0.000799968160
 C    2.971149663646    2.045084957353   -0.000554199943
 H    3.894549801948    2.622145216219   -0.000894876720
 H   -0.327027577836    2.384818378359   -0.000304897685
RB   -2.319008368749   -1.186550763173    0.000442269277
