13

 N    0.835167614457    2.081013371276   -0.000187638419
 C    2.008907197540    2.808385562786   -0.000500117589
 H    1.891190337477    3.893704021830   -0.000615965148
 C    0.789391641377    0.687801579409   -0.000572692988
 O   -0.262196527179    0.053698265568   -0.000229325884
 N    2.049832182518    0.104331523277   -0.000155789666
 H    2.059647979641   -0.913953588589   -0.000183093761
 C    3.311086471751    0.740387010240   -0.000138694830
 O    4.344779399819    0.071123175824   -0.000884360494
 C    3.229607679991    2.200934071630   -0.000638592277
 H    4.153007818293    2.777994330496   -0.000979269054
 H   -0.068569561491    2.540667492636   -0.000389290019
RB   -2.660001627479   -1.392168287051    0.000553611218
