13

 N    0.872090188221    2.103277530458   -0.000199694467
 C    2.045829771304    2.830649721968   -0.000512173637
 H    1.928112911241    3.915968181012   -0.000628021196
 C    0.826314215141    0.710065738591   -0.000584749036
 O   -0.225273953415    0.075962424750   -0.000241381932
 N    2.086754756282    0.126595682459   -0.000167845714
 H    2.096570553405   -0.891689429407   -0.000195149809
 C    3.348009045515    0.762651169422   -0.000150750878
 O    4.381701973583    0.093387335006   -0.000896416542
 C    3.266530253755    2.223198230812   -0.000650648325
 H    4.189930392057    2.800258489678   -0.000991325102
 H   -0.031646987727    2.562931651818   -0.000401346067
RB   -2.708714950155   -1.421542219034    0.000569517209
