13

 N    1.167470778329    2.281390803917   -0.000296142849
 C    2.341210361412    3.008762995427   -0.000608622019
 H    2.223493501349    4.094081454471   -0.000724469578
 C    1.121694805249    0.888179012050   -0.000681197418
 O    0.070106636693    0.254075698209   -0.000337830314
 N    2.382135346390    0.304708955918   -0.000264294096
 H    2.391951143513   -0.713576155948   -0.000291598191
 C    3.643389635623    0.940764442881   -0.000247199260
 O    4.677082563691    0.271500608465   -0.000992864924
 C    3.561910843863    2.401311504271   -0.000747096707
 H    4.485310982165    2.978371763137   -0.001087773484
 H    0.263733602381    2.741044925277   -0.000497794449
RB   -3.098421531561   -1.656533674895    0.000696765142
