13

 N    1.204393352092    2.303654963099   -0.000308198897
 C    2.378132935175    3.031027154609   -0.000620678067
 H    2.260416075112    4.116345613653   -0.000736525626
 C    1.158617379012    0.910443171232   -0.000693253466
 O    0.107029210456    0.276339857391   -0.000349886362
 N    2.419057920153    0.326973115100   -0.000276350144
 H    2.428873717276   -0.691311996766   -0.000303654239
 C    3.680312209386    0.963028602063   -0.000259255308
 O    4.714005137454    0.293764767647   -0.001004920972
 C    3.598833417626    2.423575663453   -0.000759152755
 H    4.522233555928    3.000635922319   -0.001099829532
 H    0.300656176144    2.763309084459   -0.000509850497
RB   -3.147134854237   -1.685907606878    0.000712671133
