13

 N    1.389006220910    2.414975759011   -0.000368479136
 C    2.562745803993    3.142347950521   -0.000680958306
 H    2.445028943930    4.227666409565   -0.000796805865
 C    1.343230247830    1.021763967144   -0.000753533705
 O    0.291642079274    0.387660653303   -0.000410166601
 N    2.603670788971    0.438293911012   -0.000336630383
 H    2.613486586094   -0.579991200854   -0.000363934478
 C    3.864925078204    1.074349397975   -0.000319535547
 O    4.898618006272    0.405085563559   -0.001065201211
 C    3.783446286444    2.534896459365   -0.000819432994
 H    4.706846424746    3.111956718231   -0.001160109771
 H    0.485269044962    2.874629880371   -0.000570130736
RB   -3.390701467616   -1.832777266791    0.000792201091
