13

 N    1.425928794674    2.437239918193   -0.000380535184
 C    2.599668377757    3.164612109703   -0.000693014354
 H    2.481951517694    4.249930568747   -0.000808861913
 C    1.380152821594    1.044028126326   -0.000765589753
 O    0.328564653038    0.409924812485   -0.000422222649
 N    2.640593362735    0.460558070194   -0.000348686431
 H    2.650409159858   -0.557727041672   -0.000375990526
 C    3.901847651968    1.096613557157   -0.000331591595
 O    4.935540580036    0.427349722741   -0.001077257259
 C    3.820368860208    2.557160618547   -0.000831489042
 H    4.743768998510    3.134220877413   -0.001172165819
 H    0.522191618726    2.896894039553   -0.000582186784
RB   -3.439414790291   -1.862151198774    0.000808107083
