13

 N    1.499773942201    2.481768236558   -0.000404647280
 C    2.673513525284    3.209140428068   -0.000717126450
 H    2.555796665221    4.294458887112   -0.000832974009
 C    1.453997969121    1.088556444691   -0.000789701849
 O    0.402409800565    0.454453130850   -0.000446334745
 N    2.714438510262    0.505086388559   -0.000372798527
 H    2.724254307385   -0.513198723307   -0.000400102622
 C    3.975692799495    1.141141875522   -0.000355703691
 O    5.009385727563    0.471878041106   -0.001101369355
 C    3.894214007735    2.601688936912   -0.000855601138
 H    4.817614146037    3.178749195778   -0.001196277915
 H    0.596036766253    2.941422357918   -0.000606298880
RB   -3.536841435643   -1.920899062739    0.000839919066
