13

 N    1.536696515964    2.504032395740   -0.000416703327
 C    2.710436099047    3.231404587250   -0.000729182497
 H    2.592719238984    4.316723046294   -0.000845030056
 C    1.490920542884    1.110820603873   -0.000801757896
 O    0.439332374328    0.476717290032   -0.000458390792
 N    2.751361084025    0.527350547741   -0.000384854574
 H    2.761176881148   -0.490934564125   -0.000412158669
 C    4.012615373258    1.163406034704   -0.000367759738
 O    5.046308301326    0.494142200288   -0.001113425402
 C    3.931136581498    2.623953096094   -0.000867657185
 H    4.854536719800    3.201013354960   -0.001208333962
 H    0.632959340016    2.963686517100   -0.000618354927
RB   -3.585554758319   -1.950272994721    0.000855825057
