13

 N    1.573619089728    2.526296554923   -0.000428759375
 C    2.747358672811    3.253668746433   -0.000741238545
 H    2.629641812748    4.338987205477   -0.000857086104
 C    1.527843116648    1.133084763056   -0.000813813944
 O    0.476254948092    0.498981449215   -0.000470446840
 N    2.788283657789    0.549614706924   -0.000396910622
 H    2.798099454912   -0.468670404942   -0.000424214717
 C    4.049537947022    1.185670193887   -0.000379815786
 O    5.083230875090    0.516406359471   -0.001125481450
 C    3.968059155262    2.646217255277   -0.000879713233
 H    4.891459293564    3.223277514143   -0.001220390010
 H    0.669881913780    2.985950676283   -0.000630410975
RB   -3.634268080994   -1.979646926704    0.000871731049
