13

 N    1.610541663491    2.548560714105   -0.000440815423
 C    2.784281246574    3.275932905615   -0.000753294593
 H    2.666564386511    4.361251364659   -0.000869142152
 C    1.564765690411    1.155348922238   -0.000825869992
 O    0.513177521855    0.521245608397   -0.000482502888
 N    2.825206231552    0.571878866106   -0.000408966670
 H    2.835022028675   -0.446406245760   -0.000436270765
 C    4.086460520785    1.207934353069   -0.000391871834
 O    5.120153448853    0.538670518653   -0.001137537498
 C    4.004981729025    2.668481414459   -0.000891769281
 H    4.928381867327    3.245541673325   -0.001232446058
 H    0.706804487543    3.008214835465   -0.000642467023
RB   -3.682981403670   -2.009020858687    0.000887637041
