13

 N    1.684386811018    2.593089032470   -0.000464927519
 C    2.858126394101    3.320461223980   -0.000777406689
 H    2.740409534038    4.405779683024   -0.000893254248
 C    1.638610837938    1.199877240603   -0.000849982088
 O    0.587022669382    0.565773926762   -0.000506614984
 N    2.899051379079    0.616407184471   -0.000433078766
 H    2.908867176202   -0.401877927395   -0.000460382861
 C    4.160305668312    1.252462671434   -0.000415983930
 O    5.193998596380    0.583198837018   -0.001161649594
 C    4.078826876552    2.713009732824   -0.000915881377
 H    5.002227014854    3.290069991690   -0.001256558154
 H    0.780649635070    3.052743153830   -0.000666579119
RB   -3.780408049022   -2.067768722652    0.000919449024
