13

 N    1.979767401127    2.771202305929   -0.000561375901
 C    3.153506984210    3.498574497439   -0.000873855071
 H    3.035790124147    4.583892956483   -0.000989702630
 C    1.933991428047    1.377990514062   -0.000946430470
 O    0.882403259491    0.743887200221   -0.000603063366
 N    3.194431969188    0.794520457930   -0.000529527148
 H    3.204247766311   -0.223764653936   -0.000556831243
 C    4.455686258421    1.430575944893   -0.000512432312
 O    5.489379186489    0.761312110477   -0.001258097976
 C    4.374207466661    2.891123006283   -0.001012329759
 H    5.297607604963    3.468183265149   -0.001353006536
 H    1.076030225179    3.230856427289   -0.000763027501
RB   -4.170114630428   -2.302760178513    0.001046696956
