13

 N    2.164380269945    2.882523101840   -0.000621656140
 C    3.338119853028    3.609895293350   -0.000934135310
 H    3.220402992965    4.695213752394   -0.001049982869
 C    2.118604296865    1.489311309973   -0.001006710709
 O    1.067016128309    0.855207996132   -0.000663343605
 N    3.379044838006    0.905841253841   -0.000589807387
 H    3.388860635129   -0.112443858025   -0.000617111482
 C    4.640299127239    1.541896740804   -0.000572712551
 O    5.673992055307    0.872632906388   -0.001318378215
 C    4.558820335479    3.002443802194   -0.001072609998
 H    5.482220473781    3.579504061060   -0.001413286775
 H    1.260643093997    3.342177223200   -0.000823307740
RB   -4.413681243807   -2.449629838426    0.001126226914
