13

 N    2.422838286289    3.038372216117   -0.000706048475
 C    3.596577869372    3.765744407627   -0.001018527645
 H    3.478861009309    4.851062866671   -0.001134375204
 C    2.377062313209    1.645160424250   -0.001091103044
 O    1.325474144653    1.011057110409   -0.000747735940
 N    3.637502854350    1.061690368118   -0.000674199722
 H    3.647318651473    0.043405256252   -0.000701503817
 C    4.898757143583    1.697745855081   -0.000657104886
 O    5.932450071651    1.028482020665   -0.001402770550
 C    4.817278351823    3.158292916471   -0.001157002333
 H    5.740678490125    3.735353175337   -0.001497679110
 H    1.519101110341    3.498026337477   -0.000907700075
RB   -4.754674502537   -2.655247362305    0.001237568855
