13

 N    2.459760860053    3.060636375299   -0.000718104522
 C    3.633500443136    3.788008566809   -0.001030583692
 H    3.515783583073    4.873327025853   -0.001146431251
 C    2.413984886973    1.667424583432   -0.001103159091
 O    1.362396718417    1.033321269591   -0.000759791987
 N    3.674425428114    1.083954527300   -0.000686255769
 H    3.684241225237    0.065669415434   -0.000713559864
 C    4.935679717347    1.720010014263   -0.000669160933
 O    5.969372645415    1.050746179847   -0.001414826597
 C    4.854200925587    3.180557075653   -0.001169058380
 H    5.777601063889    3.757617334519   -0.001509735157
 H    1.556023684105    3.520290496659   -0.000919756122
RB   -4.803387825213   -2.684621294287    0.001253474846
