13

 N    2.570528581344    3.127428852846   -0.000754272666
 C    3.744268164427    3.854801044356   -0.001066751836
 H    3.626551304364    4.940119503400   -0.001182599395
 C    2.524752608264    1.734217060979   -0.001139327235
 O    1.473164439708    1.100113747138   -0.000795960131
 N    3.785193149405    1.150747004847   -0.000722423913
 H    3.795008946528    0.132461892981   -0.000749728008
 C    5.046447438638    1.786802491810   -0.000705329077
 O    6.080140366706    1.117538657394   -0.001450994741
 C    4.964968646878    3.247349553200   -0.001205226524
 H    5.888368785180    3.824409812066   -0.001545903301
 H    1.666791405396    3.587082974206   -0.000955924266
RB   -4.949527793240   -2.772743090235    0.001301192821
