13

 N    2.644373728871    3.171957171211   -0.000778384761
 C    3.818113311954    3.899329362721   -0.001090863931
 H    3.700396451891    4.984647821765   -0.001206711490
 C    2.598597755791    1.778745379344   -0.001163439330
 O    1.547009587235    1.144642065503   -0.000820072226
 N    3.859038296932    1.195275323212   -0.000746536008
 H    3.868854094055    0.176990211346   -0.000773840103
 C    5.120292586165    1.831330810175   -0.000729441172
 O    6.153985514233    1.162066975759   -0.001475106836
 C    5.038813794405    3.291877871565   -0.001229338619
 H    5.962213932707    3.868938130431   -0.001570015396
 H    1.740636552923    3.631611292571   -0.000980036361
RB   -5.046954438591   -2.831490954200    0.001333004804
