13

 N    2.755141450161    3.238749648758   -0.000814552905
 C    3.928881033244    3.966121840268   -0.001127032075
 H    3.811164173181    5.051440299312   -0.001242879634
 C    2.709365477081    1.845537856891   -0.001199607474
 O    1.657777308525    1.211434543050   -0.000856240370
 N    3.969806018222    1.262067800759   -0.000782704152
 H    3.979621815345    0.243782688893   -0.000810008247
 C    5.231060307455    1.898123287722   -0.000765609316
 O    6.264753235523    1.228859453306   -0.001511274980
 C    5.149581515695    3.358670349112   -0.001265506763
 H    6.072981653997    3.935730607978   -0.001606183540
 H    1.851404274213    3.698403770118   -0.001016204505
RB   -5.193094406619   -2.919612750148    0.001380722779
