13

 N    2.828986597688    3.283277967122   -0.000838665000
 C    4.002726180771    4.010650158632   -0.001151144170
 H    3.885009320708    5.095968617676   -0.001266991729
 C    2.783210624608    1.890066175255   -0.001223719569
 O    1.731622456052    1.255962861414   -0.000880352465
 N    4.043651165749    1.306596119123   -0.000806816247
 H    4.053466962872    0.288311007257   -0.000834120342
 C    5.304905454982    1.942651606086   -0.000789721411
 O    6.338598383050    1.273387771670   -0.001535387075
 C    5.223426663222    3.403198667476   -0.001289618858
 H    6.146826801524    3.980258926342   -0.001630295635
 H    1.925249421740    3.742932088482   -0.001040316600
RB   -5.290521051970   -2.978360614113    0.001412534762
