13

 N    2.902831745215    3.327806285487   -0.000862777096
 C    4.076571328298    4.055178476997   -0.001175256266
 H    3.958854468235    5.140496936041   -0.001291103825
 C    2.857055772135    1.934594493620   -0.001247831665
 O    1.805467603579    1.300491179779   -0.000904464561
 N    4.117496313276    1.351124437488   -0.000830928343
 H    4.127312110399    0.332839325622   -0.000858232438
 C    5.378750602509    1.987179924451   -0.000813833507
 O    6.412443530577    1.317916090035   -0.001559499171
 C    5.297271810749    3.447726985841   -0.001313730954
 H    6.220671949051    4.024787244707   -0.001654407731
 H    1.999094569267    3.787460406847   -0.001064428696
RB   -5.387947697322   -3.037108478079    0.001444346745
