13

 N    3.050522040270    3.416862922217   -0.000911001287
 C    4.224261623353    4.144235113727   -0.001223480457
 H    4.106544763290    5.229553572771   -0.001339328016
 C    3.004746067190    2.023651130350   -0.001296055856
 O    1.953157898634    1.389547816509   -0.000952688752
 N    4.265186608331    1.440181074218   -0.000879152534
 H    4.275002405454    0.421895962352   -0.000906456629
 C    5.526440897564    2.076236561181   -0.000862057698
 O    6.560133825632    1.406972726765   -0.001607723362
 C    5.444962105804    3.536783622571   -0.001361955145
 H    6.368362244106    4.113843881437   -0.001702631922
 H    2.146784864322    3.876517043577   -0.001112652887
RB   -5.582800988025   -3.154604206009    0.001507970711
