13

 N    3.124367187797    3.461391240581   -0.000935113383
 C    4.298106770880    4.188763432091   -0.001247592553
 H    4.180389910817    5.274081891135   -0.001363440112
 C    3.078591214717    2.068179448714   -0.001320167952
 O    2.027003046161    1.434076134873   -0.000976800848
 N    4.339031755858    1.484709392582   -0.000903264630
 H    4.348847552981    0.466424280716   -0.000930568725
 C    5.600286045091    2.120764879545   -0.000886169794
 O    6.633978973159    1.451501045129   -0.001631835458
 C    5.518807253331    3.581311940935   -0.001386067241
 H    6.442207391633    4.158372199801   -0.001726744018
 H    2.220630011849    3.921045361941   -0.001136764983
RB   -5.680227633376   -3.213352069974    0.001539782694
