13

 N    3.161289761560    3.483655399764   -0.000947169431
 C    4.335029344643    4.211027591274   -0.001259648601
 H    4.217312484580    5.296346050318   -0.001375496160
 C    3.115513788480    2.090443607897   -0.001332224000
 O    2.063925619924    1.456340294056   -0.000988856896
 N    4.375954329621    1.506973551765   -0.000915320678
 H    4.385770126744    0.488688439899   -0.000942624773
 C    5.637208618854    2.143029038728   -0.000898225842
 O    6.670901546922    1.473765204312   -0.001643891506
 C    5.555729827094    3.603576100118   -0.001398123289
 H    6.479129965396    4.180636358984   -0.001738800066
 H    2.257552585612    3.943309521124   -0.001148821031
RB   -5.728940956052   -3.242726001957    0.001555688686
