13

 N    3.198212335324    3.505919558946   -0.000959225478
 C    4.371951918407    4.233291750456   -0.001271704648
 H    4.254235058344    5.318610209500   -0.001387552207
 C    3.152436362244    2.112707767079   -0.001344280047
 O    2.100848193688    1.478604453238   -0.001000912943
 N    4.412876903385    1.529237710947   -0.000927376725
 H    4.422692700508    0.510952599081   -0.000954680820
 C    5.674131192618    2.165293197910   -0.000910281889
 O    6.707824120686    1.496029363494   -0.001655947553
 C    5.592652400858    3.625840259300   -0.001410179336
 H    6.516052539160    4.202900518166   -0.001750856113
 H    2.294475159376    3.965573680306   -0.001160877078
RB   -5.777654278728   -3.272099933940    0.001571594678
