13

 N    3.272057482851    3.550447877311   -0.000983337574
 C    4.445797065934    4.277820068821   -0.001295816744
 H    4.328080205871    5.363138527865   -0.001411664303
 C    3.226281509771    2.157236085444   -0.001368392143
 O    2.174693341215    1.523132771603   -0.001025025039
 N    4.486722050912    1.573766029312   -0.000951488821
 H    4.496537848035    0.555480917446   -0.000978792916
 C    5.747976340145    2.209821516275   -0.000934393985
 O    6.781669268213    1.540557681859   -0.001680059649
 C    5.666497548385    3.670368577665   -0.001434291432
 H    6.589897686687    4.247428836531   -0.001774968209
 H    2.368320306903    4.010101998671   -0.001184989174
RB   -5.875080924079   -3.330847797905    0.001603406661
