13

 N    3.382825204141    3.617240354858   -0.001019505717
 C    4.556564787224    4.344612546368   -0.001331984887
 H    4.438847927161    5.429931005412   -0.001447832446
 C    3.337049231061    2.224028562991   -0.001404560286
 O    2.285461062505    1.589925249150   -0.001061193182
 N    4.597489772202    1.640558506859   -0.000987656964
 H    4.607305569325    0.622273394993   -0.001014961059
 C    5.858744061435    2.276613993822   -0.000970562128
 O    6.892436989503    1.607350159406   -0.001716227792
 C    5.777265269675    3.737161055212   -0.001470459575
 H    6.700665407977    4.314221314078   -0.001811136352
 H    2.479088028193    4.076894476218   -0.001221157317
RB   -6.021220892106   -3.418969593853    0.001651124635
