13

 N    3.419747777905    3.639504514040   -0.001031561765
 C    4.593487360988    4.366876705550   -0.001344040935
 H    4.475770500925    5.452195164594   -0.001459888494
 C    3.373971804825    2.246292722173   -0.001416616334
 O    2.322383636269    1.612189408332   -0.001073249230
 N    4.634412345966    1.662822666041   -0.000999713012
 H    4.644228143089    0.644537554175   -0.001027017107
 C    5.895666635199    2.298878153004   -0.000982618176
 O    6.929359563267    1.629614318588   -0.001728283840
 C    5.814187843439    3.759425214394   -0.001482515623
 H    6.737587981741    4.336485473260   -0.001823192400
 H    2.516010601957    4.099158635400   -0.001233213365
RB   -6.069934214782   -3.448343525836    0.001667030627
