25

 C   -7.684297608716   -0.629376094836    0.000000000000
 H   -8.780677608716   -0.718866094836    0.000000000000
 C   -7.063467608716    0.638703905164    0.000000000000
 H   -7.670657608716    1.546043905164    0.000000000000
 C   -6.865557608716   -1.779826094836    0.000000000000
 H   -7.317207608716   -2.773736094836    0.000000000000
 C   -5.663267608716    0.773133905164    0.000000000000
 H   -5.129457608716    1.736223905164    0.000000000000
 C   -5.462117608716   -1.684846094836    0.000000000000
 H   -4.778407608716   -2.548106094836    0.000000000000
 C   -4.823857608716   -0.395396094836    0.000000000000
 O   -3.518607608716   -0.288526094836    0.000000000000
CS    1.038452391284    0.085153905164    0.000000000000
 O    2.035107232165    0.166879838318    0.000000000000
 C    3.340359560526    0.273748466581    0.000000000000
 C    4.179761876112   -0.894781749327    0.000000000000
 H    3.645958410340   -1.857871120481    0.000000000000
 C    5.579963416287   -0.760350590398    0.000000000000
 H    6.187162526960   -1.667693399317    0.000000000000
 C    6.200799508707    0.507728333151    0.000000000000
 H    7.297173486715    0.597216325341    0.000000000000
 C    5.382061120218    1.658173643809    0.000000000000
 H    5.833713919361    2.652086269459    0.000000000000
 C    3.978621161737    1.563197302344    0.000000000000
 H    3.294907378597    2.426459111498    0.000000000000
