25

 C   -7.800574123161   -0.638910796577    0.000000000000
 H   -8.896954123161   -0.728400796577    0.000000000000
 C   -7.179744123161    0.629169203423    0.000000000000
 H   -7.786934123161    1.536509203423    0.000000000000
 C   -6.981834123161   -1.789360796577    0.000000000000
 H   -7.433484123161   -2.783270796577    0.000000000000
 C   -5.779544123161    0.763599203423    0.000000000000
 H   -5.245734123161    1.726689203423    0.000000000000
 C   -5.578394123161   -1.694380796577    0.000000000000
 H   -4.894684123161   -2.557640796577    0.000000000000
 C   -4.940134123161   -0.404930796577    0.000000000000
 O   -3.634884123161   -0.298060796577    0.000000000000
CS    0.922175876839    0.075619203423    0.000000000000
 O    2.317492654072    0.190035509839    0.000000000000
 C    3.622744982433    0.296904138101    0.000000000000
 C    4.462147298019   -0.871626077806    0.000000000000
 H    3.928343832247   -1.834715448961    0.000000000000
 C    5.862348838194   -0.737194918877    0.000000000000
 H    6.469547948867   -1.644537727797    0.000000000000
 C    6.483184930614    0.530884004671    0.000000000000
 H    7.579558908622    0.620371996861    0.000000000000
 C    5.664446542125    1.681329315329    0.000000000000
 H    6.116099341268    2.675241940980    0.000000000000
 C    4.261006583644    1.586352973864    0.000000000000
 H    3.577292800504    2.449614783018    0.000000000000
