25

 C   -7.887781508994   -0.646061822884    0.000000000000
 H   -8.984161508994   -0.735551822884    0.000000000000
 C   -7.266951508994    0.622018177116    0.000000000000
 H   -7.874141508994    1.529358177116    0.000000000000
 C   -7.069041508994   -1.796511822884    0.000000000000
 H   -7.520691508994   -2.790421822884    0.000000000000
 C   -5.866751508994    0.756448177116    0.000000000000
 H   -5.332941508994    1.719538177116    0.000000000000
 C   -5.665601508994   -1.701531822884    0.000000000000
 H   -4.981891508994   -2.564791822884    0.000000000000
 C   -5.027341508994   -0.412081822884    0.000000000000
 O   -3.722091508994   -0.305211822884    0.000000000000
CS    0.834968491006    0.068468177116    0.000000000000
 O    2.529281720502    0.207402263479    0.000000000000
 C    3.834534048863    0.314270891742    0.000000000000
 C    4.673936364449   -0.854259324166    0.000000000000
 H    4.140132898678   -1.817348695320    0.000000000000
 C    6.074137904624   -0.719828165237    0.000000000000
 H    6.681337015297   -1.627170974157    0.000000000000
 C    6.694973997044    0.548250758312    0.000000000000
 H    7.791347975053    0.637738750502    0.000000000000
 C    5.876235608556    1.698696068970    0.000000000000
 H    6.327888407698    2.692608694620    0.000000000000
 C    4.472795650074    1.603719727504    0.000000000000
 H    3.789081866934    2.466981536658    0.000000000000
