25

 C   -7.945919766217   -0.650829173754    0.000000000000
 H   -9.042299766217   -0.740319173754    0.000000000000
 C   -7.325089766217    0.617250826246    0.000000000000
 H   -7.932279766217    1.524590826246    0.000000000000
 C   -7.127179766217   -1.801279173754    0.000000000000
 H   -7.578829766217   -2.795189173754    0.000000000000
 C   -5.924889766217    0.751680826246    0.000000000000
 H   -5.391079766217    1.714770826246    0.000000000000
 C   -5.723739766217   -1.706299173754    0.000000000000
 H   -5.040029766217   -2.569559173754    0.000000000000
 C   -5.085479766217   -0.416849173754    0.000000000000
 O   -3.780229766217   -0.309979173754    0.000000000000
CS    0.776830233783    0.063700826246    0.000000000000
 O    2.670474431456    0.218980099239    0.000000000000
 C    3.975726759817    0.325848727502    0.000000000000
 C    4.815129075403   -0.842681488406    0.000000000000
 H    4.281325609631   -1.805770859560    0.000000000000
 C    6.215330615578   -0.708250329477    0.000000000000
 H    6.822529726251   -1.615593138396    0.000000000000
 C    6.836166707998    0.559828594072    0.000000000000
 H    7.932540686006    0.649316586262    0.000000000000
 C    6.017428319509    1.710273904730    0.000000000000
 H    6.469081118652    2.704186530380    0.000000000000
 C    4.613988361028    1.615297563264    0.000000000000
 H    3.930274577888    2.478559372418    0.000000000000
