25

 C  -10.300519183728   -0.843906884018    0.000000000000
 H  -11.396899183728   -0.933396884018    0.000000000000
 C   -9.679689183728    0.424173115982    0.000000000000
 H  -10.286879183728    1.331513115982    0.000000000000
 C   -9.481779183728   -1.994356884018    0.000000000000
 H   -9.933429183728   -2.988266884018    0.000000000000
 C   -8.279489183728    0.558603115982    0.000000000000
 H   -7.745679183728    1.521693115982    0.000000000000
 C   -8.078339183728   -1.899376884018    0.000000000000
 H   -7.394629183728   -2.762636884018    0.000000000000
 C   -7.440079183728   -0.609926884018    0.000000000000
 O   -6.134829183728   -0.503056884018    0.000000000000
CS   -1.577769183728   -0.129376884018    0.000000000000
 O    8.388779225074    0.687882447525    0.000000000000
 C    9.694031553436    0.794751075788    0.000000000000
 C   10.533433869022   -0.373779140120    0.000000000000
 H    9.999630403250   -1.336868511274    0.000000000000
 C   11.933635409197   -0.239347981191    0.000000000000
 H   12.540834519870   -1.146690790111    0.000000000000
 C   12.554471501617    1.028730942358    0.000000000000
 H   13.650845479625    1.118218934548    0.000000000000
 C   11.735733113128    2.179176253016    0.000000000000
 H   12.187385912271    3.173088878666    0.000000000000
 C   10.332293154647    2.084199911550    0.000000000000
 H    9.648579371507    2.947461720704    0.000000000000
