25

 C   -7.974988894828   -0.653212849190    0.000000000000
 H   -9.071368894828   -0.742702849190    0.000000000000
 C   -7.354158894828    0.614867150810    0.000000000000
 H   -7.961348894828    1.522207150810    0.000000000000
 C   -7.156248894828   -1.803662849190    0.000000000000
 H   -7.607898894828   -2.797572849190    0.000000000000
 C   -5.953958894828    0.749297150810    0.000000000000
 H   -5.420148894828    1.712387150810    0.000000000000
 C   -5.752808894828   -1.708682849190    0.000000000000
 H   -5.069098894828   -2.571942849190    0.000000000000
 C   -5.114548894828   -0.419232849190    0.000000000000
 O   -3.809298894828   -0.312362849190    0.000000000000
CS    0.747761105172    0.061317150810    0.000000000000
 O    2.741070786932    0.224769017119    0.000000000000
 C    4.046323115294    0.331637645382    0.000000000000
 C    4.885725430879   -0.836892570526    0.000000000000
 H    4.351921965108   -1.799981941680    0.000000000000
 C    6.285926971055   -0.702461411597    0.000000000000
 H    6.893126081728   -1.609804220516    0.000000000000
 C    6.906763063475    0.565617511952    0.000000000000
 H    8.003137041483    0.655105504142    0.000000000000
 C    6.088024674986    1.716062822610    0.000000000000
 H    6.539677474129    2.709975448260    0.000000000000
 C    4.684584716505    1.621086481144    0.000000000000
 H    4.000870933365    2.484348290299    0.000000000000
