25

 C   -8.004058023439   -0.655596524625    0.000000000000
 H   -9.100438023439   -0.745086524625    0.000000000000
 C   -7.383228023439    0.612483475375    0.000000000000
 H   -7.990418023439    1.519823475375    0.000000000000
 C   -7.185318023439   -1.806046524625    0.000000000000
 H   -7.636968023439   -2.799956524625    0.000000000000
 C   -5.983028023439    0.746913475375    0.000000000000
 H   -5.449218023439    1.710003475375    0.000000000000
 C   -5.781878023439   -1.711066524625    0.000000000000
 H   -5.098168023439   -2.574326524625    0.000000000000
 C   -5.143618023439   -0.421616524625    0.000000000000
 O   -3.838368023439   -0.314746524625    0.000000000000
CS    0.718691976561    0.058933475375    0.000000000000
 O    2.811667142409    0.230557934999    0.000000000000
 C    4.116919470771    0.337426563262    0.000000000000
 C    4.956321786356   -0.831103652646    0.000000000000
 H    4.422518320585   -1.794193023800    0.000000000000
 C    6.356523326531   -0.696672493717    0.000000000000
 H    6.963722437205   -1.604015302636    0.000000000000
 C    6.977359418951    0.571406429832    0.000000000000
 H    8.073733396960    0.660894422022    0.000000000000
 C    6.158621030463    1.721851740490    0.000000000000
 H    6.610273829605    2.715764366140    0.000000000000
 C    4.755181071982    1.626875399024    0.000000000000
 H    4.071467288841    2.490137208179    0.000000000000
