25

 C   -8.033127152051   -0.657980200060    0.000000000000
 H   -9.129507152051   -0.747470200060    0.000000000000
 C   -7.412297152051    0.610099799940    0.000000000000
 H   -8.019487152051    1.517439799940    0.000000000000
 C   -7.214387152051   -1.808430200060    0.000000000000
 H   -7.666037152051   -2.802340200060    0.000000000000
 C   -6.012097152051    0.744529799940    0.000000000000
 H   -5.478287152051    1.707619799940    0.000000000000
 C   -5.810947152051   -1.713450200060    0.000000000000
 H   -5.127237152051   -2.576710200060    0.000000000000
 C   -5.172687152051   -0.424000200060    0.000000000000
 O   -3.867437152051   -0.317130200060    0.000000000000
CS    0.689622847949    0.056549799940    0.000000000000
 O    2.882263497886    0.236346852879    0.000000000000
 C    4.187515826247    0.343215481142    0.000000000000
 C    5.026918141833   -0.825314734766    0.000000000000
 H    4.493114676062   -1.788404105920    0.000000000000
 C    6.427119682008   -0.690883575837    0.000000000000
 H    7.034318792681   -1.598226384756    0.000000000000
 C    7.047955774428    0.577195347712    0.000000000000
 H    8.144329752437    0.666683339902    0.000000000000
 C    6.229217385940    1.727640658370    0.000000000000
 H    6.680870185082    2.721553284020    0.000000000000
 C    4.825777427458    1.632664316904    0.000000000000
 H    4.142063644318    2.495926126059    0.000000000000
