25

 C   -8.120334537884   -0.665131226366    0.000000000000
 H   -9.216714537884   -0.754621226366    0.000000000000
 C   -7.499504537884    0.602948773634    0.000000000000
 H   -8.106694537884    1.510288773634    0.000000000000
 C   -7.301594537884   -1.815581226366    0.000000000000
 H   -7.753244537884   -2.809491226366    0.000000000000
 C   -6.099304537884    0.737378773634    0.000000000000
 H   -5.565494537884    1.700468773634    0.000000000000
 C   -5.898154537884   -1.720601226366    0.000000000000
 H   -5.214444537884   -2.583861226366    0.000000000000
 C   -5.259894537884   -0.431151226366    0.000000000000
 O   -3.954644537884   -0.324281226366    0.000000000000
CS    0.602415462116    0.049398773634    0.000000000000
 O    3.094052564316    0.253713606519    0.000000000000
 C    4.399304892678    0.360582234782    0.000000000000
 C    5.238707208263   -0.807947981126    0.000000000000
 H    4.704903742492   -1.771037352280    0.000000000000
 C    6.638908748439   -0.673516822197    0.000000000000
 H    7.246107859112   -1.580859631116    0.000000000000
 C    7.259744840859    0.594562101352    0.000000000000
 H    8.356118818867    0.684050093542    0.000000000000
 C    6.441006452370    1.745007412010    0.000000000000
 H    6.892659251513    2.738920037660    0.000000000000
 C    5.037566493889    1.650031070545    0.000000000000
 H    4.353852710749    2.513292879699    0.000000000000
