25

 C   -8.207541923718   -0.672282252672    0.000000000000
 H   -9.303921923718   -0.761772252672    0.000000000000
 C   -7.586711923718    0.595797747328    0.000000000000
 H   -8.193901923718    1.503137747328    0.000000000000
 C   -7.388801923718   -1.822732252672    0.000000000000
 H   -7.840451923718   -2.816642252672    0.000000000000
 C   -6.186511923718    0.730227747328    0.000000000000
 H   -5.652701923718    1.693317747328    0.000000000000
 C   -5.985361923718   -1.727752252672    0.000000000000
 H   -5.301651923718   -2.591012252672    0.000000000000
 C   -5.347101923718   -0.438302252672    0.000000000000
 O   -4.041851923718   -0.331432252672    0.000000000000
CS    0.515208076282    0.042247747328    0.000000000000
 O    3.305841630747    0.271080360160    0.000000000000
 C    4.611093959108    0.377948988422    0.000000000000
 C    5.450496274694   -0.790581227485    0.000000000000
 H    4.916692808922   -1.753670598640    0.000000000000
 C    6.850697814869   -0.656150068556    0.000000000000
 H    7.457896925542   -1.563492877476    0.000000000000
 C    7.471533907289    0.611928854992    0.000000000000
 H    8.567907885297    0.701416847182    0.000000000000
 C    6.652795518800    1.762374165650    0.000000000000
 H    7.104448317943    2.756286791301    0.000000000000
 C    5.249355560319    1.667397824185    0.000000000000
 H    4.565641777179    2.530659633339    0.000000000000
