25

 C   -8.352887566774   -0.684200629849    0.000000000000
 H   -9.449267566774   -0.773690629849    0.000000000000
 C   -7.732057566774    0.583879370151    0.000000000000
 H   -8.339247566774    1.491219370151    0.000000000000
 C   -7.534147566774   -1.834650629849    0.000000000000
 H   -7.985797566774   -2.828560629849    0.000000000000
 C   -6.331857566774    0.718309370151    0.000000000000
 H   -5.798047566774    1.681399370151    0.000000000000
 C   -6.130707566774   -1.739670629849    0.000000000000
 H   -5.446997566774   -2.602930629849    0.000000000000
 C   -5.492447566774   -0.450220629849    0.000000000000
 O   -4.187197566774   -0.343350629849    0.000000000000
CS    0.369862433226    0.030329370151    0.000000000000
 O    3.658823408130    0.300024949560    0.000000000000
 C    4.964075736492    0.406893577823    0.000000000000
 C    5.803478052078   -0.761636638085    0.000000000000
 H    5.269674586306   -1.724726009239    0.000000000000
 C    7.203679592253   -0.627205479156    0.000000000000
 H    7.810878702926   -1.534548288075    0.000000000000
 C    7.824515684673    0.640873444393    0.000000000000
 H    8.920889662681    0.730361436583    0.000000000000
 C    7.005777296184    1.791318755051    0.000000000000
 H    7.457430095327    2.785231380701    0.000000000000
 C    5.602337337703    1.696342413585    0.000000000000
 H    4.918623554563    2.559604222739    0.000000000000
