25

 C   -8.411025823997   -0.688967980720    0.000000000000
 H   -9.507405823997   -0.778457980720    0.000000000000
 C   -7.790195823997    0.579112019280    0.000000000000
 H   -8.397385823997    1.486452019280    0.000000000000
 C   -7.592285823997   -1.839417980720    0.000000000000
 H   -8.043935823997   -2.833327980720    0.000000000000
 C   -6.389995823997    0.713542019280    0.000000000000
 H   -5.856185823997    1.676632019280    0.000000000000
 C   -6.188845823997   -1.744437980720    0.000000000000
 H   -5.505135823997   -2.607697980720    0.000000000000
 C   -5.550585823997   -0.454987980720    0.000000000000
 O   -4.245335823997   -0.348117980720    0.000000000000
CS    0.311724176003    0.025562019280    0.000000000000
 O    3.800016119084    0.311602785320    0.000000000000
 C    5.105268447445    0.418471413583    0.000000000000
 C    5.944670763031   -0.750058802325    0.000000000000
 H    5.410867297260   -1.713148173479    0.000000000000
 C    7.344872303206   -0.615627643396    0.000000000000
 H    7.952071413879   -1.522970452315    0.000000000000
 C    7.965708395626    0.652451280153    0.000000000000
 H    9.062082373635    0.741939272343    0.000000000000
 C    7.146970007138    1.802896590811    0.000000000000
 H    7.598622806280    2.796809216461    0.000000000000
 C    5.743530048656    1.707920249345    0.000000000000
 H    5.059816265516    2.571182058500    0.000000000000
