25

 C   -8.440094952608   -0.691351656155    0.000000000000
 H   -9.536474952608   -0.780841656155    0.000000000000
 C   -7.819264952608    0.576728343845    0.000000000000
 H   -8.426454952608    1.484068343845    0.000000000000
 C   -7.621354952608   -1.841801656155    0.000000000000
 H   -8.073004952608   -2.835711656155    0.000000000000
 C   -6.419064952608    0.711158343845    0.000000000000
 H   -5.885254952608    1.674248343845    0.000000000000
 C   -6.217914952608   -1.746821656155    0.000000000000
 H   -5.534204952608   -2.610081656155    0.000000000000
 C   -5.579654952608   -0.457371656155    0.000000000000
 O   -4.274404952608   -0.350501656155    0.000000000000
CS    0.282655047392    0.023178343845    0.000000000000
 O    3.870612474561    0.317391703200    0.000000000000
 C    5.175864802922    0.424260331463    0.000000000000
 C    6.015267118508   -0.744269884445    0.000000000000
 H    5.481463652736   -1.707359255599    0.000000000000
 C    7.415468658683   -0.609838725516    0.000000000000
 H    8.022667769356   -1.517181534435    0.000000000000
 C    8.036304751103    0.658240198033    0.000000000000
 H    9.132678729111    0.747728190223    0.000000000000
 C    7.217566362614    1.808685508691    0.000000000000
 H    7.669219161757    2.802598134341    0.000000000000
 C    5.814126404133    1.713709167225    0.000000000000
 H    5.130412620993    2.576970976380    0.000000000000
