25

 C   -8.469164081219   -0.693735331591    0.000000000000
 H   -9.565544081219   -0.783225331591    0.000000000000
 C   -7.848334081219    0.574344668409    0.000000000000
 H   -8.455524081219    1.481684668409    0.000000000000
 C   -7.650424081219   -1.844185331591    0.000000000000
 H   -8.102074081219   -2.838095331591    0.000000000000
 C   -6.448134081219    0.708774668409    0.000000000000
 H   -5.914324081219    1.671864668409    0.000000000000
 C   -6.246984081219   -1.749205331591    0.000000000000
 H   -5.563274081219   -2.612465331591    0.000000000000
 C   -5.608724081219   -0.459755331591    0.000000000000
 O   -4.303474081219   -0.352885331591    0.000000000000
CS    0.253585918781    0.020794668409    0.000000000000
 O    3.941208830037    0.323180621080    0.000000000000
 C    5.246461158399    0.430049249343    0.000000000000
 C    6.085863473985   -0.738480966565    0.000000000000
 H    5.552060008213   -1.701570337719    0.000000000000
 C    7.486065014160   -0.604049807636    0.000000000000
 H    8.093264124833   -1.511392616555    0.000000000000
 C    8.106901106580    0.664029115913    0.000000000000
 H    9.203275084588    0.753517108103    0.000000000000
 C    7.288162718091    1.814474426571    0.000000000000
 H    7.739815517234    2.808387052221    0.000000000000
 C    5.884722759610    1.719498085106    0.000000000000
 H    5.201008976470    2.582759894260    0.000000000000
