25

 C   -8.498233209831   -0.696119007026    0.000000000000
 H   -9.594613209831   -0.785609007026    0.000000000000
 C   -7.877403209831    0.571960992974    0.000000000000
 H   -8.484593209831    1.479300992974    0.000000000000
 C   -7.679493209831   -1.846569007026    0.000000000000
 H   -8.131143209831   -2.840479007026    0.000000000000
 C   -6.477203209831    0.706390992974    0.000000000000
 H   -5.943393209831    1.669480992974    0.000000000000
 C   -6.276053209831   -1.751589007026    0.000000000000
 H   -5.592343209831   -2.614849007026    0.000000000000
 C   -5.637793209831   -0.462139007026    0.000000000000
 O   -4.332543209831   -0.355269007026    0.000000000000
CS    0.224516790169    0.018410992974    0.000000000000
 O    4.011805185514    0.328969538960    0.000000000000
 C    5.317057513876    0.435838167223    0.000000000000
 C    6.156459829461   -0.732692048685    0.000000000000
 H    5.622656363690   -1.695781419839    0.000000000000
 C    7.556661369637   -0.598260889756    0.000000000000
 H    8.163860480310   -1.505603698675    0.000000000000
 C    8.177497462057    0.669818033793    0.000000000000
 H    9.273871440065    0.759306025983    0.000000000000
 C    7.358759073568    1.820263344451    0.000000000000
 H    7.810411872711    2.814175970101    0.000000000000
 C    5.955319115087    1.725287002986    0.000000000000
 H    5.271605331947    2.588548812140    0.000000000000
