25

 C   -8.527302338442   -0.698502682461    0.000000000000
 H   -9.623682338442   -0.787992682461    0.000000000000
 C   -7.906472338442    0.569577317539    0.000000000000
 H   -8.513662338442    1.476917317539    0.000000000000
 C   -7.708562338442   -1.848952682461    0.000000000000
 H   -8.160212338442   -2.842862682461    0.000000000000
 C   -6.506272338442    0.704007317539    0.000000000000
 H   -5.972462338442    1.667097317539    0.000000000000
 C   -6.305122338442   -1.753972682461    0.000000000000
 H   -5.621412338442   -2.617232682461    0.000000000000
 C   -5.666862338442   -0.464522682461    0.000000000000
 O   -4.361612338442   -0.357652682461    0.000000000000
CS    0.195447661558    0.016027317539    0.000000000000
 O    4.082401540991    0.334758456840    0.000000000000
 C    5.387653869353    0.441627085103    0.000000000000
 C    6.227056184938   -0.726903130805    0.000000000000
 H    5.693252719167   -1.689992501959    0.000000000000
 C    7.627257725113   -0.592471971876    0.000000000000
 H    8.234456835787   -1.499814780795    0.000000000000
 C    8.248093817533    0.675606951673    0.000000000000
 H    9.344467795542    0.765094943863    0.000000000000
 C    7.429355429045    1.826052262331    0.000000000000
 H    7.881008228187    2.819964887981    0.000000000000
 C    6.025915470564    1.731075920866    0.000000000000
 H    5.342201687423    2.594337730020    0.000000000000
