25

 C   -8.614509724276   -0.705653708767    0.000000000000
 H   -9.710889724276   -0.795143708767    0.000000000000
 C   -7.993679724276    0.562426291233    0.000000000000
 H   -8.600869724276    1.469766291233    0.000000000000
 C   -7.795769724276   -1.856103708767    0.000000000000
 H   -8.247419724276   -2.850013708767    0.000000000000
 C   -6.593479724276    0.696856291233    0.000000000000
 H   -6.059669724276    1.659946291233    0.000000000000
 C   -6.392329724276   -1.761123708767    0.000000000000
 H   -5.708619724276   -2.624383708767    0.000000000000
 C   -5.754069724276   -0.471673708767    0.000000000000
 O   -4.448819724276   -0.364803708767    0.000000000000
CS    0.108240275724    0.008876291233    0.000000000000
 O    4.294190607421    0.352125210481    0.000000000000
 C    5.599442935783    0.458993838744    0.000000000000
 C    6.438845251369   -0.709536377164    0.000000000000
 H    5.905041785597   -1.672625748319    0.000000000000
 C    7.839046791544   -0.575105218235    0.000000000000
 H    8.446245902217   -1.482448027155    0.000000000000
 C    8.459882883964    0.692973705313    0.000000000000
 H    9.556256861972    0.782461697503    0.000000000000
 C    7.641144495475    1.843419015971    0.000000000000
 H    8.092797294618    2.837331641622    0.000000000000
 C    6.237704536994    1.748442674506    0.000000000000
 H    5.553990753854    2.611704483660    0.000000000000
