25

 C   -8.672647981498   -0.710421059638    0.000000000000
 H   -9.769027981498   -0.799911059638    0.000000000000
 C   -8.051817981498    0.557658940362    0.000000000000
 H   -8.659007981498    1.464998940362    0.000000000000
 C   -7.853907981498   -1.860871059638    0.000000000000
 H   -8.305557981498   -2.854781059638    0.000000000000
 C   -6.651617981498    0.692088940362    0.000000000000
 H   -6.117807981498    1.655178940362    0.000000000000
 C   -6.450467981498   -1.765891059638    0.000000000000
 H   -5.766757981498   -2.629151059638    0.000000000000
 C   -5.812207981498   -0.476441059638    0.000000000000
 O   -4.506957981498   -0.369571059638    0.000000000000
CS    0.050102018502    0.004108940362    0.000000000000
 O    4.435383318375    0.363703046241    0.000000000000
 C    5.740635646736    0.470571674504    0.000000000000
 C    6.580037962322   -0.697958541404    0.000000000000
 H    6.046234496551   -1.661047912558    0.000000000000
 C    7.980239502497   -0.563527382475    0.000000000000
 H    8.587438613170   -1.470870191395    0.000000000000
 C    8.601075594917    0.704551541074    0.000000000000
 H    9.697449572926    0.794039533263    0.000000000000
 C    7.782337206429    1.854996851732    0.000000000000
 H    8.233990005571    2.848909477382    0.000000000000
 C    6.378897247947    1.760020510266    0.000000000000
 H    5.695183464807    2.623282319420    0.000000000000
