25

 C   -8.759855367332   -0.717572085944    0.000000000000
 H   -9.856235367332   -0.807062085944    0.000000000000
 C   -8.139025367332    0.550507914056    0.000000000000
 H   -8.746215367332    1.457847914056    0.000000000000
 C   -7.941115367332   -1.868022085944    0.000000000000
 H   -8.392765367332   -2.861932085944    0.000000000000
 C   -6.738825367332    0.684937914056    0.000000000000
 H   -6.205015367332    1.648027914056    0.000000000000
 C   -6.537675367332   -1.773042085944    0.000000000000
 H   -5.853965367332   -2.636302085944    0.000000000000
 C   -5.899415367332   -0.483592085944    0.000000000000
 O   -4.594165367332   -0.376722085944    0.000000000000
CS   -0.037105367332   -0.003042085944    0.000000000000
 O    4.647172384805    0.381069799881    0.000000000000
 C    5.952424713167    0.487938428144    0.000000000000
 C    6.791827028752   -0.680591787764    0.000000000000
 H    6.258023562981   -1.643681158918    0.000000000000
 C    8.192028568928   -0.546160628835    0.000000000000
 H    8.799227679601   -1.453503437754    0.000000000000
 C    8.812864661348    0.721918294714    0.000000000000
 H    9.909238639356    0.811406286904    0.000000000000
 C    7.994126272859    1.872363605372    0.000000000000
 H    8.445779072002    2.866276231022    0.000000000000
 C    6.590686314378    1.777387263906    0.000000000000
 H    5.906972531238    2.640649073060    0.000000000000
