25

 C   -8.788924495943   -0.719955761380    0.000000000000
 H   -9.885304495943   -0.809445761380    0.000000000000
 C   -8.168094495943    0.548124238620    0.000000000000
 H   -8.775284495943    1.455464238620    0.000000000000
 C   -7.970184495943   -1.870405761380    0.000000000000
 H   -8.421834495943   -2.864315761380    0.000000000000
 C   -6.767894495943    0.682554238620    0.000000000000
 H   -6.234084495943    1.645644238620    0.000000000000
 C   -6.566744495943   -1.775425761380    0.000000000000
 H   -5.883034495943   -2.638685761380    0.000000000000
 C   -5.928484495943   -0.485975761380    0.000000000000
 O   -4.623234495943   -0.379105761380    0.000000000000
CS   -0.066174495943   -0.005425761380    0.000000000000
 O    4.717768740282    0.386858717761    0.000000000000
 C    6.023021068644    0.493727346024    0.000000000000
 C    6.862423384229   -0.674802869884    0.000000000000
 H    6.328619918458   -1.637892241038    0.000000000000
 C    8.262624924404   -0.540371710955    0.000000000000
 H    8.869824035078   -1.447714519874    0.000000000000
 C    8.883461016824    0.727707212594    0.000000000000
 H    9.979834994833    0.817195204784    0.000000000000
 C    8.064722628336    1.878152523252    0.000000000000
 H    8.516375427478    2.872065148902    0.000000000000
 C    6.661282669855    1.783176181786    0.000000000000
 H    5.977568886714    2.646437990941    0.000000000000
