25

 C   -9.137754039278   -0.748559866604    0.000000000000
 H  -10.234134039278   -0.838049866604    0.000000000000
 C   -8.516924039278    0.519520133396    0.000000000000
 H   -9.124114039278    1.426860133396    0.000000000000
 C   -8.319014039278   -1.899009866604    0.000000000000
 H   -8.770664039278   -2.892919866604    0.000000000000
 C   -7.116724039278    0.653950133396    0.000000000000
 H   -6.582914039278    1.617040133396    0.000000000000
 C   -6.915574039278   -1.804029866604    0.000000000000
 H   -6.231864039278   -2.667289866604    0.000000000000
 C   -6.277314039278   -0.514579866604    0.000000000000
 O   -4.972064039278   -0.407709866604    0.000000000000
CS   -0.415004039278   -0.034029866604    0.000000000000
 O    5.564925006003    0.456325732322    0.000000000000
 C    6.870177334365    0.563194360585    0.000000000000
 C    7.709579649951   -0.605335855323    0.000000000000
 H    7.175776184179   -1.568425226477    0.000000000000
 C    9.109781190126   -0.470904696394    0.000000000000
 H    9.716980300799   -1.378247505313    0.000000000000
 C    9.730617282546    0.797174227155    0.000000000000
 H   10.826991260554    0.886662219345    0.000000000000
 C    8.911878894057    1.947619537813    0.000000000000
 H    9.363531693200    2.941532163463    0.000000000000
 C    7.508438935576    1.852643196347    0.000000000000
 H    6.824725152436    2.715905005501    0.000000000000
