25

 C   -9.166823167889   -0.750943542039    0.000000000000
 H  -10.263203167889   -0.840433542039    0.000000000000
 C   -8.545993167889    0.517136457961    0.000000000000
 H   -9.153183167889    1.424476457961    0.000000000000
 C   -8.348083167889   -1.901393542039    0.000000000000
 H   -8.799733167889   -2.895303542039    0.000000000000
 C   -7.145793167889    0.651566457961    0.000000000000
 H   -6.611983167889    1.614656457961    0.000000000000
 C   -6.944643167889   -1.806413542039    0.000000000000
 H   -6.260933167889   -2.669673542039    0.000000000000
 C   -6.306383167889   -0.516963542039    0.000000000000
 O   -5.001133167889   -0.410093542039    0.000000000000
CS   -0.444073167889   -0.036413542039    0.000000000000
 O    5.635521361480    0.462114650202    0.000000000000
 C    6.940773689842    0.568983278465    0.000000000000
 C    7.780176005427   -0.599546937443    0.000000000000
 H    7.246372539656   -1.562636308597    0.000000000000
 C    9.180377545603   -0.465115778514    0.000000000000
 H    9.787576656276   -1.372458587433    0.000000000000
 C    9.801213638023    0.802963145035    0.000000000000
 H   10.897587616031    0.892451137225    0.000000000000
 C    8.982475249534    1.953408455693    0.000000000000
 H    9.434128048677    2.947321081343    0.000000000000
 C    7.579035291053    1.858432114227    0.000000000000
 H    6.895321507913    2.721693923381    0.000000000000
