25

 C   -9.283099682334   -0.760478243781    0.000000000000
 H  -10.379479682334   -0.849968243781    0.000000000000
 C   -8.662269682334    0.507601756219    0.000000000000
 H   -9.269459682334    1.414941756219    0.000000000000
 C   -8.464359682334   -1.910928243781    0.000000000000
 H   -8.916009682334   -2.904838243781    0.000000000000
 C   -7.262069682334    0.642031756219    0.000000000000
 H   -6.728259682334    1.605121756219    0.000000000000
 C   -7.060919682334   -1.815948243781    0.000000000000
 H   -6.377209682334   -2.679208243781    0.000000000000
 C   -6.422659682334   -0.526498243781    0.000000000000
 O   -5.117409682334   -0.419628243781    0.000000000000
CS   -0.560349682334   -0.045948243781    0.000000000000
 O    5.917906783387    0.485270321722    0.000000000000
 C    7.223159111749    0.592138949985    0.000000000000
 C    8.062561427334   -0.576391265923    0.000000000000
 H    7.528757961563   -1.539480637077    0.000000000000
 C    9.462762967510   -0.441960106994    0.000000000000
 H   10.069962078183   -1.349302915913    0.000000000000
 C   10.083599059930    0.826118816555    0.000000000000
 H   11.179973037938    0.915606808745    0.000000000000
 C    9.264860671441    1.976564127213    0.000000000000
 H    9.716513470584    2.970476752863    0.000000000000
 C    7.861420712960    1.881587785748    0.000000000000
 H    7.177706929820    2.744849594902    0.000000000000
