25

 C   -9.312168810946   -0.762861919216    0.000000000000
 H  -10.408548810946   -0.852351919216    0.000000000000
 C   -8.691338810946    0.505218080784    0.000000000000
 H   -9.298528810946    1.412558080784    0.000000000000
 C   -8.493428810946   -1.913311919216    0.000000000000
 H   -8.945078810946   -2.907221919216    0.000000000000
 C   -7.291138810946    0.639648080784    0.000000000000
 H   -6.757328810946    1.602738080784    0.000000000000
 C   -7.089988810946   -1.818331919216    0.000000000000
 H   -6.406278810946   -2.681591919216    0.000000000000
 C   -6.451728810946   -0.528881919216    0.000000000000
 O   -5.146478810946   -0.422011919216    0.000000000000
CS   -0.589418810946   -0.048331919216    0.000000000000
 O    5.988503138864    0.491059239602    0.000000000000
 C    7.293755467226    0.597927867865    0.000000000000
 C    8.133157782811   -0.570602348043    0.000000000000
 H    7.599354317040   -1.533691719197    0.000000000000
 C    9.533359322986   -0.436171189114    0.000000000000
 H   10.140558433660   -1.343513998033    0.000000000000
 C   10.154195415406    0.831907734435    0.000000000000
 H   11.250569393415    0.921395726625    0.000000000000
 C    9.335457026918    1.982353045093    0.000000000000
 H    9.787109826060    2.976265670743    0.000000000000
 C    7.932017068437    1.887376703628    0.000000000000
 H    7.248303285296    2.750638512782    0.000000000000
