25

 C   -9.341237939557   -0.765245594651    0.000000000000
 H  -10.437617939557   -0.854735594651    0.000000000000
 C   -8.720407939557    0.502834405349    0.000000000000
 H   -9.327597939557    1.410174405349    0.000000000000
 C   -8.522497939557   -1.915695594651    0.000000000000
 H   -8.974147939557   -2.909605594651    0.000000000000
 C   -7.320207939557    0.637264405349    0.000000000000
 H   -6.786397939557    1.600354405349    0.000000000000
 C   -7.119057939557   -1.820715594651    0.000000000000
 H   -6.435347939557   -2.683975594651    0.000000000000
 C   -6.480797939557   -0.531265594651    0.000000000000
 O   -5.175547939557   -0.424395594651    0.000000000000
CS   -0.618487939557   -0.050715594651    0.000000000000
 O    6.059099494341    0.496848157482    0.000000000000
 C    7.364351822702    0.603716785745    0.000000000000
 C    8.203754138288   -0.564813430162    0.000000000000
 H    7.669950672516   -1.527902801317    0.000000000000
 C    9.603955678463   -0.430382271234    0.000000000000
 H   10.211154789136   -1.337725080153    0.000000000000
 C   10.224791770883    0.837696652315    0.000000000000
 H   11.321165748892    0.927184644505    0.000000000000
 C    9.406053382395    1.988141962973    0.000000000000
 H    9.857706181537    2.982054588623    0.000000000000
 C    8.002613423913    1.893165621508    0.000000000000
 H    7.318899640773    2.756427430662    0.000000000000
