25

 C   -9.370307068168   -0.767629270087    0.000000000000
 H  -10.466687068168   -0.857119270087    0.000000000000
 C   -8.749477068168    0.500450729913    0.000000000000
 H   -9.356667068168    1.407790729913    0.000000000000
 C   -8.551567068168   -1.918079270087    0.000000000000
 H   -9.003217068168   -2.911989270087    0.000000000000
 C   -7.349277068168    0.634880729913    0.000000000000
 H   -6.815467068168    1.597970729913    0.000000000000
 C   -7.148127068168   -1.823099270087    0.000000000000
 H   -6.464417068168   -2.686359270087    0.000000000000
 C   -6.509867068168   -0.533649270087    0.000000000000
 O   -5.204617068168   -0.426779270087    0.000000000000
CS   -0.647557068168   -0.053099270087    0.000000000000
 O    6.129695849818    0.502637075362    0.000000000000
 C    7.434948178179    0.609505703625    0.000000000000
 C    8.274350493765   -0.559024512282    0.000000000000
 H    7.740547027993   -1.522113883437    0.000000000000
 C    9.674552033940   -0.424593353353    0.000000000000
 H   10.281751144613   -1.331936162273    0.000000000000
 C   10.295388126360    0.843485570195    0.000000000000
 H   11.391762104368    0.932973562385    0.000000000000
 C    9.476649737871    1.993930880853    0.000000000000
 H    9.928302537014    2.987843506503    0.000000000000
 C    8.073209779390    1.898954539388    0.000000000000
 H    7.389495996250    2.762216348542    0.000000000000
