25

 C   -9.515652711224   -0.779547647264    0.000000000000
 H  -10.612032711224   -0.869037647264    0.000000000000
 C   -8.894822711224    0.488532352736    0.000000000000
 H   -9.502012711224    1.395872352736    0.000000000000
 C   -8.696912711224   -1.929997647264    0.000000000000
 H   -9.148562711224   -2.923907647264    0.000000000000
 C   -7.494622711224    0.622962352736    0.000000000000
 H   -6.960812711224    1.586052352736    0.000000000000
 C   -7.293472711224   -1.835017647264    0.000000000000
 H   -6.609762711224   -2.698277647264    0.000000000000
 C   -6.655212711224   -0.545567647264    0.000000000000
 O   -5.349962711224   -0.438697647264    0.000000000000
CS   -0.792902711224   -0.065017647264    0.000000000000
 O    6.482677627201    0.531581664763    0.000000000000
 C    7.787929955563    0.638450293026    0.000000000000
 C    8.627332271149   -0.530079922882    0.000000000000
 H    8.093528805377   -1.493169294036    0.000000000000
 C   10.027533811324   -0.395648763953    0.000000000000
 H   10.634732921997   -1.302991572873    0.000000000000
 C   10.648369903744    0.872430159596    0.000000000000
 H   11.744743881752    0.961918151786    0.000000000000
 C    9.829631515255    2.022875470254    0.000000000000
 H   10.281284314398    3.016788095904    0.000000000000
 C    8.426191556774    1.927899128788    0.000000000000
 H    7.742477773634    2.791160937942    0.000000000000
