25

 C   -9.573790968447   -0.784314998134    0.000000000000
 H  -10.670170968447   -0.873804998134    0.000000000000
 C   -8.952960968447    0.483765001866    0.000000000000
 H   -9.560150968447    1.391105001866    0.000000000000
 C   -8.755050968447   -1.934764998134    0.000000000000
 H   -9.206700968447   -2.928674998134    0.000000000000
 C   -7.552760968447    0.618195001866    0.000000000000
 H   -7.018950968447    1.581285001866    0.000000000000
 C   -7.351610968447   -1.839784998134    0.000000000000
 H   -6.667900968447   -2.703044998134    0.000000000000
 C   -6.713350968447   -0.550334998134    0.000000000000
 O   -5.408100968447   -0.443464998134    0.000000000000
CS   -0.851040968447   -0.069784998134    0.000000000000
 O    6.623870338155    0.543159500523    0.000000000000
 C    7.929122666517    0.650028128786    0.000000000000
 C    8.768524982102   -0.518502087122    0.000000000000
 H    8.234721516331   -1.481591458276    0.000000000000
 C   10.168726522277   -0.384070928193    0.000000000000
 H   10.775925632951   -1.291413737112    0.000000000000
 C   10.789562614697    0.884007995356    0.000000000000
 H   11.885936592706    0.973495987546    0.000000000000
 C    9.970824226209    2.034453306014    0.000000000000
 H   10.422477025351    3.028365931664    0.000000000000
 C    8.567384267728    1.939476964548    0.000000000000
 H    7.883670484587    2.802738773702    0.000000000000
