25

 C   -9.602860097058   -0.786698673570    0.000000000000
 H  -10.699240097058   -0.876188673570    0.000000000000
 C   -8.982030097058    0.481381326430    0.000000000000
 H   -9.589220097058    1.388721326430    0.000000000000
 C   -8.784120097058   -1.937148673570    0.000000000000
 H   -9.235770097058   -2.931058673570    0.000000000000
 C   -7.581830097058    0.615811326430    0.000000000000
 H   -7.048020097058    1.578901326430    0.000000000000
 C   -7.380680097058   -1.842168673570    0.000000000000
 H   -6.696970097058   -2.705428673570    0.000000000000
 C   -6.742420097058   -0.552718673570    0.000000000000
 O   -5.437170097058   -0.445848673570    0.000000000000
CS   -0.880110097058   -0.072168673570    0.000000000000
 O    6.694466693632    0.548948418403    0.000000000000
 C    7.999719021993    0.655817046666    0.000000000000
 C    8.839121337579   -0.512713169242    0.000000000000
 H    8.305317871807   -1.475802540396    0.000000000000
 C   10.239322877754   -0.378282010313    0.000000000000
 H   10.846521988427   -1.285624819232    0.000000000000
 C   10.860158970174    0.889796913236    0.000000000000
 H   11.956532948183    0.979284905426    0.000000000000
 C   10.041420581686    2.040242223894    0.000000000000
 H   10.493073380828    3.034154849544    0.000000000000
 C    8.637980623204    1.945265882428    0.000000000000
 H    7.954266840064    2.808527691583    0.000000000000
