25

 C   -9.748205740114   -0.798617050746    0.000000000000
 H  -10.844585740114   -0.888107050746    0.000000000000
 C   -9.127375740114    0.469462949254    0.000000000000
 H   -9.734565740114    1.376802949254    0.000000000000
 C   -8.929465740114   -1.949067050746    0.000000000000
 H   -9.381115740114   -2.942977050746    0.000000000000
 C   -7.727175740114    0.603892949254    0.000000000000
 H   -7.193365740114    1.566982949254    0.000000000000
 C   -7.526025740114   -1.854087050746    0.000000000000
 H   -6.842315740114   -2.717347050746    0.000000000000
 C   -6.887765740114   -0.564637050746    0.000000000000
 O   -5.582515740114   -0.457767050746    0.000000000000
CS   -1.025455740114   -0.084087050746    0.000000000000
 O    7.047448471016    0.577893007803    0.000000000000
 C    8.352700799377    0.684761636066    0.000000000000
 C    9.192103114963   -0.483768579841    0.000000000000
 H    8.658299649191   -1.446857950996    0.000000000000
 C   10.592304655138   -0.349337420913    0.000000000000
 H   11.199503765811   -1.256680229832    0.000000000000
 C   11.213140747558    0.918741502636    0.000000000000
 H   12.309514725566    1.008229494826    0.000000000000
 C   10.394402359069    2.069186813294    0.000000000000
 H   10.846055158212    3.063099438944    0.000000000000
 C    8.990962400588    1.974210471829    0.000000000000
 H    8.307248617448    2.837472280983    0.000000000000
