25

 C   -9.864482254559   -0.808151752488    0.000000000000
 H  -10.960862254559   -0.897641752488    0.000000000000
 C   -9.243652254559    0.459928247512    0.000000000000
 H   -9.850842254559    1.367268247512    0.000000000000
 C   -9.045742254559   -1.958601752488    0.000000000000
 H   -9.497392254559   -2.952511752488    0.000000000000
 C   -7.843452254559    0.594358247512    0.000000000000
 H   -7.309642254559    1.557448247512    0.000000000000
 C   -7.642302254559   -1.863621752488    0.000000000000
 H   -6.958592254559   -2.726881752488    0.000000000000
 C   -7.004042254559   -0.574171752488    0.000000000000
 O   -5.698792254559   -0.467301752488    0.000000000000
CS   -1.141732254559   -0.093621752488    0.000000000000
 O    7.329833892923    0.601048679324    0.000000000000
 C    8.635086221284    0.707917307587    0.000000000000
 C    9.474488536870   -0.460612908321    0.000000000000
 H    8.940685071098   -1.423702279475    0.000000000000
 C   10.874690077045   -0.326181749392    0.000000000000
 H   11.481889187718   -1.233524558312    0.000000000000
 C   11.495526169465    0.941897174157    0.000000000000
 H   12.591900147473    1.031385166346    0.000000000000
 C   10.676787780977    2.092342484815    0.000000000000
 H   11.128440580119    3.086255110465    0.000000000000
 C    9.273347822495    1.997366143349    0.000000000000
 H    8.589634039355    2.860627952503    0.000000000000
