25

 C   -9.951689640393   -0.815302778794    0.000000000000
 H  -11.048069640393   -0.904792778794    0.000000000000
 C   -9.330859640393    0.452777221206    0.000000000000
 H   -9.938049640393    1.360117221206    0.000000000000
 C   -9.132949640393   -1.965752778794    0.000000000000
 H   -9.584599640393   -2.959662778794    0.000000000000
 C   -7.930659640393    0.587207221206    0.000000000000
 H   -7.396849640393    1.550297221206    0.000000000000
 C   -7.729509640393   -1.870772778794    0.000000000000
 H   -7.045799640393   -2.734032778794    0.000000000000
 C   -7.091249640393   -0.581322778794    0.000000000000
 O   -5.785999640393   -0.474452778794    0.000000000000
CS   -1.228939640393   -0.100772778794    0.000000000000
 O    7.541622959353    0.618415432964    0.000000000000
 C    8.846875287715    0.725284061227    0.000000000000
 C    9.686277603300   -0.443246154681    0.000000000000
 H    9.152474137529   -1.406335525835    0.000000000000
 C   11.086479143475   -0.308814995752    0.000000000000
 H   11.693678254149   -1.216157804671    0.000000000000
 C   11.707315235895    0.959263927797    0.000000000000
 H   12.803689213904    1.048751919987    0.000000000000
 C   10.888576847407    2.109709238455    0.000000000000
 H   11.340229646549    3.103621864105    0.000000000000
 C    9.485136888926    2.014732896989    0.000000000000
 H    8.801423105785    2.877994706143    0.000000000000
