10

 H    2.640506508948    1.139887381925   -0.901476000000
 H    1.438292508948    2.115134381925    0.000000000000
 H    2.640506508948    1.139887381925    0.901476000000
 C    2.009657508948    1.175415381925    0.000000000000
 S    0.811782508948   -0.197122618075    0.000000000000
 C    2.009657508948   -1.569660618075    0.000000000000
 H    2.640506508948   -1.534132618075    0.901476000000
 H    1.438292508948   -2.509379618075    0.000000000000
 H    2.640506508948   -1.534132618075   -0.901476000000
CS   -0.660092687643    0.091985330038    0.000000000000
