10

 H    8.327399818906    0.022859212836   -0.901476000000
 H    7.125185818906    0.998106212836    0.000000000000
 H    8.327399818906    0.022859212836    0.901476000000
 C    7.696550818906    0.058387212836    0.000000000000
 S    6.498675818906   -1.314150787164    0.000000000000
 C    7.696550818906   -2.686688787164    0.000000000000
 H    8.327399818906   -2.651160787164    0.901476000000
 H    7.125185818906   -3.626407787164    0.000000000000
 H    8.327399818906   -2.651160787164   -0.901476000000
CS   -3.313825491697    0.613235533585    0.000000000000
