10

 H    3.108838899180    1.047896826824   -0.901476000000
 H    1.906624899180    2.023143826824    0.000000000000
 H    3.108838899180    1.047896826824    0.901476000000
 C    2.477989899180    1.083424826824    0.000000000000
 S    1.280114899180   -0.289113173176    0.000000000000
 C    2.477989899180   -1.661651173176    0.000000000000
 H    3.108838899180   -1.626123173176    0.901476000000
 H    1.906624899180   -2.601370173176    0.000000000000
 H    3.108838899180   -1.626123173176   -0.901476000000
CS   -0.878635389153    0.134911817389    0.000000000000
