10

 H    3.242648153532    1.021613811081   -0.901476000000
 H    2.040434153532    1.996860811081    0.000000000000
 H    3.242648153532    1.021613811081    0.901476000000
 C    2.611799153532    1.057141811081    0.000000000000
 S    1.413924153532   -0.315396188919    0.000000000000
 C    2.611799153532   -1.687934188919    0.000000000000
 H    3.242648153532   -1.652406188919    0.901476000000
 H    2.040434153532   -2.627653188919    0.000000000000
 H    3.242648153532   -1.652406188919   -0.901476000000
CS   -0.941076161013    0.147176528060    0.000000000000
