10

 H    3.309552780708    1.008472303209   -0.901476000000
 H    2.107338780708    1.983719303209    0.000000000000
 H    3.309552780708    1.008472303209    0.901476000000
 C    2.678703780708    1.044000303209    0.000000000000
 S    1.480828780708   -0.328537696791    0.000000000000
 C    2.678703780708   -1.701075696791    0.000000000000
 H    3.309552780708   -1.665547696791    0.901476000000
 H    2.107338780708   -2.640794696791    0.000000000000
 H    3.309552780708   -1.665547696791   -0.901476000000
CS   -0.972296546943    0.153308883396    0.000000000000
