10

 H    3.376457407884    0.995330795337   -0.901476000000
 H    2.174243407884    1.970577795337    0.000000000000
 H    3.376457407884    0.995330795337    0.901476000000
 C    2.745608407884    1.030858795337    0.000000000000
 S    1.547733407884   -0.341679204663    0.000000000000
 C    2.745608407884   -1.714217204663    0.000000000000
 H    3.376457407884   -1.678689204663    0.901476000000
 H    2.174243407884   -2.653936204663    0.000000000000
 H    3.376457407884   -1.678689204663   -0.901476000000
CS   -1.003516932873    0.159441238732    0.000000000000
