10

 H    3.777885170940    0.916481748108   -0.901476000000
 H    2.575671170940    1.891728748108    0.000000000000
 H    3.777885170940    0.916481748108    0.901476000000
 C    3.147036170940    0.952009748108    0.000000000000
 S    1.949161170940   -0.420528251892    0.000000000000
 C    3.147036170940   -1.793066251892    0.000000000000
 H    3.777885170940   -1.757538251892    0.901476000000
 H    2.575671170940   -2.732785251892    0.000000000000
 H    3.777885170940   -1.757538251892   -0.901476000000
CS   -1.190839248453    0.196235370747    0.000000000000
