10

 H    3.844789798116    0.903340240236   -0.901476000000
 H    2.642575798116    1.878587240236    0.000000000000
 H    3.844789798116    0.903340240236    0.901476000000
 C    3.213940798116    0.938868240236    0.000000000000
 S    2.016065798116   -0.433669759764    0.000000000000
 C    3.213940798116   -1.806207759764    0.000000000000
 H    3.844789798116   -1.770679759764    0.901476000000
 H    2.642575798116   -2.745926759764    0.000000000000
 H    3.844789798116   -1.770679759764   -0.901476000000
CS   -1.222059634383    0.202367726083    0.000000000000
