10

 H    3.911694425292    0.890198732364   -0.901476000000
 H    2.709480425292    1.865445732364    0.000000000000
 H    3.911694425292    0.890198732364    0.901476000000
 C    3.280845425292    0.925726732364    0.000000000000
 S    2.082970425292   -0.446811267636    0.000000000000
 C    3.280845425292   -1.819349267636    0.000000000000
 H    3.911694425292   -1.783821267636    0.901476000000
 H    2.709480425292   -2.759068267636    0.000000000000
 H    3.911694425292   -1.783821267636   -0.901476000000
CS   -1.253280020314    0.208500081419    0.000000000000
