10

 H    4.045503679644    0.863915716621   -0.901476000000
 H    2.843289679644    1.839162716621    0.000000000000
 H    4.045503679644    0.863915716621    0.901476000000
 C    3.414654679644    0.899443716621    0.000000000000
 S    2.216779679644   -0.473094283379    0.000000000000
 C    3.414654679644   -1.845632283379    0.000000000000
 H    4.045503679644   -1.810104283379    0.901476000000
 H    2.843289679644   -2.785351283379    0.000000000000
 H    4.045503679644   -1.810104283379   -0.901476000000
CS   -1.315720792174    0.220764792090    0.000000000000
