10

 H    4.112408306820    0.850774208749   -0.901476000000
 H    2.910194306820    1.826021208749    0.000000000000
 H    4.112408306820    0.850774208749    0.901476000000
 C    3.481559306820    0.886302208749    0.000000000000
 S    2.283684306820   -0.486235791251    0.000000000000
 C    3.481559306820   -1.858773791251    0.000000000000
 H    4.112408306820   -1.823245791251    0.901476000000
 H    2.910194306820   -2.798492791251    0.000000000000
 H    4.112408306820   -1.823245791251   -0.901476000000
CS   -1.346941178104    0.226897147426    0.000000000000
