10

 H    4.313122188348    0.811349685134   -0.901476000000
 H    3.110908188348    1.786596685134    0.000000000000
 H    4.313122188348    0.811349685134    0.901476000000
 C    3.682273188348    0.846877685134    0.000000000000
 S    2.484398188348   -0.525660314866    0.000000000000
 C    3.682273188348   -1.898198314866    0.000000000000
 H    4.313122188348   -1.862670314866    0.901476000000
 H    3.110908188348   -2.837917314866    0.000000000000
 H    4.313122188348   -1.862670314866   -0.901476000000
CS   -1.440602335894    0.245294213434    0.000000000000
