10

 H    4.380026815523    0.798208177263   -0.901476000000
 H    3.177812815523    1.773455177263    0.000000000000
 H    4.380026815523    0.798208177263    0.901476000000
 C    3.749177815523    0.833736177263    0.000000000000
 S    2.551302815523   -0.538801822737    0.000000000000
 C    3.749177815523   -1.911339822737    0.000000000000
 H    4.380026815523   -1.875811822737    0.901476000000
 H    3.177812815523   -2.851058822737    0.000000000000
 H    4.380026815523   -1.875811822737   -0.901476000000
CS   -1.471822721824    0.251426568770    0.000000000000
