10

 H    4.513836069875    0.771925161520   -0.901476000000
 H    3.311622069875    1.747172161520    0.000000000000
 H    4.513836069875    0.771925161520    0.901476000000
 C    3.882987069875    0.807453161520    0.000000000000
 S    2.685112069875   -0.565084838480    0.000000000000
 C    3.882987069875   -1.937622838480    0.000000000000
 H    4.513836069875   -1.902094838480    0.901476000000
 H    3.311622069875   -2.877341838480    0.000000000000
 H    4.513836069875   -1.902094838480   -0.901476000000
CS   -1.534263493684    0.263691279441    0.000000000000
