10

 H    4.647645324227    0.745642145776   -0.901476000000
 H    3.445431324227    1.720889145776    0.000000000000
 H    4.647645324227    0.745642145776    0.901476000000
 C    4.016796324227    0.781170145776    0.000000000000
 S    2.818921324227   -0.591367854224    0.000000000000
 C    4.016796324227   -1.963905854224    0.000000000000
 H    4.647645324227   -1.928377854224    0.901476000000
 H    3.445431324227   -2.903624854224    0.000000000000
 H    4.647645324227   -1.928377854224   -0.901476000000
CS   -1.596704265544    0.275955990113    0.000000000000
