10

 H    4.848359205755    0.706217622161   -0.901476000000
 H    3.646145205755    1.681464622161    0.000000000000
 H    4.848359205755    0.706217622161    0.901476000000
 C    4.217510205755    0.741745622161    0.000000000000
 S    3.019635205755   -0.630792377839    0.000000000000
 C    4.217510205755   -2.003330377839    0.000000000000
 H    4.848359205755   -1.967802377839    0.901476000000
 H    3.646145205755   -2.943049377839    0.000000000000
 H    4.848359205755   -1.967802377839   -0.901476000000
CS   -1.690365423334    0.294353056121    0.000000000000
