10

 H    4.915263832931    0.693076114290   -0.901476000000
 H    3.713049832931    1.668323114290    0.000000000000
 H    4.915263832931    0.693076114290    0.901476000000
 C    4.284414832931    0.728604114290    0.000000000000
 S    3.086539832931   -0.643933885710    0.000000000000
 C    4.284414832931   -2.016471885710    0.000000000000
 H    4.915263832931   -1.980943885710    0.901476000000
 H    3.713049832931   -2.956190885710    0.000000000000
 H    4.915263832931   -1.980943885710   -0.901476000000
CS   -1.721585809264    0.300485411456    0.000000000000
