10

 H    5.049073087283    0.666793098546   -0.901476000000
 H    3.846859087283    1.642040098546    0.000000000000
 H    5.049073087283    0.666793098546    0.901476000000
 C    4.418224087283    0.702321098546    0.000000000000
 S    3.220349087283   -0.670216901454    0.000000000000
 C    4.418224087283   -2.042754901454    0.000000000000
 H    5.049073087283   -2.007226901454    0.901476000000
 H    3.846859087283   -2.982473901454    0.000000000000
 H    5.049073087283   -2.007226901454   -0.901476000000
CS   -1.784026581124    0.312750122128    0.000000000000
