10

 H    5.182882341635    0.640510082803   -0.901476000000
 H    3.980668341635    1.615757082803    0.000000000000
 H    5.182882341635    0.640510082803    0.901476000000
 C    4.552033341635    0.676038082803    0.000000000000
 S    3.354158341635   -0.696499917197    0.000000000000
 C    4.552033341635   -2.069037917197    0.000000000000
 H    5.182882341635   -2.033509917197    0.901476000000
 H    3.980668341635   -3.008756917197    0.000000000000
 H    5.182882341635   -2.033509917197   -0.901476000000
CS   -1.846467352985    0.325014832800    0.000000000000
