10

 H    5.450500850339    0.587944051317   -0.901476000000
 H    4.248286850339    1.563191051317    0.000000000000
 H    5.450500850339    0.587944051317    0.901476000000
 C    4.819651850339    0.623472051317    0.000000000000
 S    3.621776850339   -0.749065948683    0.000000000000
 C    4.819651850339   -2.121603948683    0.000000000000
 H    5.450500850339   -2.086075948683    0.901476000000
 H    4.248286850339   -3.061322948683    0.000000000000
 H    5.450500850339   -2.086075948683   -0.901476000000
CS   -1.971348896705    0.349544254143    0.000000000000
