10

 H    5.517405477515    0.574802543445   -0.901476000000
 H    4.315191477515    1.550049543445    0.000000000000
 H    5.517405477515    0.574802543445    0.901476000000
 C    4.886556477515    0.610330543445    0.000000000000
 S    3.688681477515   -0.762207456555    0.000000000000
 C    4.886556477515   -2.134745456555    0.000000000000
 H    5.517405477515   -2.099217456555    0.901476000000
 H    4.315191477515   -3.074464456555    0.000000000000
 H    5.517405477515   -2.099217456555   -0.901476000000
CS   -2.002569282635    0.355676609479    0.000000000000
