10

 H    5.651214731867    0.548519527702   -0.901476000000
 H    4.449000731867    1.523766527702    0.000000000000
 H    5.651214731867    0.548519527702    0.901476000000
 C    5.020365731867    0.584047527702    0.000000000000
 S    3.822490731867   -0.788490472298    0.000000000000
 C    5.020365731867   -2.161028472298    0.000000000000
 H    5.651214731867   -2.125500472298    0.901476000000
 H    4.449000731867   -3.100747472298    0.000000000000
 H    5.651214731867   -2.125500472298   -0.901476000000
CS   -2.065010054495    0.367941320151    0.000000000000
