10

 H    6.320261003627    0.417104448985   -0.901476000000
 H    5.118047003627    1.392351448985    0.000000000000
 H    6.320261003627    0.417104448985    0.901476000000
 C    5.689412003627    0.452632448985    0.000000000000
 S    4.491537003627   -0.919905551015    0.000000000000
 C    5.689412003627   -2.292443551015    0.000000000000
 H    6.320261003627   -2.256915551015    0.901476000000
 H    5.118047003627   -3.232162551015    0.000000000000
 H    6.320261003627   -2.256915551015   -0.901476000000
CS   -2.377213913795    0.429264873509    0.000000000000
