10

 H    6.387165630803    0.403962941114   -0.901476000000
 H    5.184951630803    1.379209941114    0.000000000000
 H    6.387165630803    0.403962941114    0.901476000000
 C    5.756316630803    0.439490941114    0.000000000000
 S    4.558441630803   -0.933047058886    0.000000000000
 C    5.756316630803   -2.305585058886    0.000000000000
 H    6.387165630803   -2.270057058886    0.901476000000
 H    5.184951630803   -3.245304058886    0.000000000000
 H    6.387165630803   -2.270057058886   -0.901476000000
CS   -2.408434299725    0.435397228845    0.000000000000
