10

 H    6.654784139507    0.351396909627   -0.901476000000
 H    5.452570139507    1.326643909627    0.000000000000
 H    6.654784139507    0.351396909627    0.901476000000
 C    6.023935139507    0.386924909627    0.000000000000
 S    4.826060139507   -0.985613090373    0.000000000000
 C    6.023935139507   -2.358151090373    0.000000000000
 H    6.654784139507   -2.322623090373    0.901476000000
 H    5.452570139507   -3.297870090373    0.000000000000
 H    6.654784139507   -2.322623090373   -0.901476000000
CS   -2.533315843446    0.459926650188    0.000000000000
