10

 H    6.788593393859    0.325113893884   -0.901476000000
 H    5.586379393859    1.300360893884    0.000000000000
 H    6.788593393859    0.325113893884    0.901476000000
 C    6.157744393859    0.360641893884    0.000000000000
 S    4.959869393859   -1.011896106116    0.000000000000
 C    6.157744393859   -2.384434106116    0.000000000000
 H    6.788593393859   -2.348906106116    0.901476000000
 H    5.586379393859   -3.324153106116    0.000000000000
 H    6.788593393859   -2.348906106116   -0.901476000000
CS   -2.595756615306    0.472191360860    0.000000000000
