10

 H    6.855498021035    0.311972386012   -0.901476000000
 H    5.653284021035    1.287219386012    0.000000000000
 H    6.855498021035    0.311972386012    0.901476000000
 C    6.224649021035    0.347500386012    0.000000000000
 S    5.026774021035   -1.025037613988    0.000000000000
 C    6.224649021035   -2.397575613988    0.000000000000
 H    6.855498021035   -2.362047613988    0.901476000000
 H    5.653284021035   -3.337294613988    0.000000000000
 H    6.855498021035   -2.362047613988   -0.901476000000
CS   -2.626977001236    0.478323716196    0.000000000000
