10

 H    6.922402648211    0.298830878141   -0.901476000000
 H    5.720188648211    1.274077878141    0.000000000000
 H    6.922402648211    0.298830878141    0.901476000000
 C    6.291553648211    0.334358878141    0.000000000000
 S    5.093678648211   -1.038179121859    0.000000000000
 C    6.291553648211   -2.410717121859    0.000000000000
 H    6.922402648211   -2.375189121859    0.901476000000
 H    5.720188648211   -3.350436121859    0.000000000000
 H    6.922402648211   -2.375189121859   -0.901476000000
CS   -2.658197387166    0.484456071532    0.000000000000
