10

 H    7.390735038443    0.206840323039   -0.901476000000
 H    6.188521038443    1.182087323039    0.000000000000
 H    7.390735038443    0.206840323039    0.901476000000
 C    6.759886038443    0.242368323039    0.000000000000
 S    5.562011038443   -1.130169676961    0.000000000000
 C    6.759886038443   -2.502707676961    0.000000000000
 H    7.390735038443   -2.467179676961    0.901476000000
 H    6.188521038443   -3.442426676961    0.000000000000
 H    7.390735038443   -2.467179676961   -0.901476000000
CS   -2.876740088676    0.527382558883    0.000000000000
