10

 H    7.457639665619    0.193698815168   -0.901476000000
 H    6.255425665619    1.168945815168    0.000000000000
 H    7.457639665619    0.193698815168    0.901476000000
 C    6.826790665619    0.229226815168    0.000000000000
 S    5.628915665619   -1.143311184832    0.000000000000
 C    6.826790665619   -2.515849184832    0.000000000000
 H    7.457639665619   -2.480321184832    0.901476000000
 H    6.255425665619   -3.455568184832    0.000000000000
 H    7.457639665619   -2.480321184832   -0.901476000000
CS   -2.907960474606    0.533514914219    0.000000000000
