10

 H    7.725258174323    0.141132783681   -0.901476000000
 H    6.523044174323    1.116379783681    0.000000000000
 H    7.725258174323    0.141132783681    0.901476000000
 C    7.094409174323    0.176660783681    0.000000000000
 S    5.896534174323   -1.195877216319    0.000000000000
 C    7.094409174323   -2.568415216319    0.000000000000
 H    7.725258174323   -2.532887216319    0.901476000000
 H    6.523044174323   -3.508134216319    0.000000000000
 H    7.725258174323   -2.532887216319   -0.901476000000
CS   -3.032842018327    0.558044335562    0.000000000000
