10

 H    7.925972055850    0.101708260066   -0.901476000000
 H    6.723758055850    1.076955260066    0.000000000000
 H    7.925972055850    0.101708260066    0.901476000000
 C    7.295123055850    0.137236260066    0.000000000000
 S    6.097248055850   -1.235301739934    0.000000000000
 C    7.295123055850   -2.607839739934    0.000000000000
 H    7.925972055850   -2.572311739934    0.901476000000
 H    6.723758055850   -3.547558739934    0.000000000000
 H    7.925972055850   -2.572311739934   -0.901476000000
CS   -3.126503176117    0.576441401569    0.000000000000
