10

 H    8.126685937378    0.062283736451   -0.901476000000
 H    6.924471937378    1.037530736451    0.000000000000
 H    8.126685937378    0.062283736451    0.901476000000
 C    7.495836937378    0.097811736451    0.000000000000
 S    6.297961937378   -1.274726263549    0.000000000000
 C    7.495836937378   -2.647264263549    0.000000000000
 H    8.126685937378   -2.611736263549    0.901476000000
 H    6.924471937378   -3.586983263549    0.000000000000
 H    8.126685937378   -2.611736263549   -0.901476000000
CS   -3.220164333907    0.594838467577    0.000000000000
