10

 H    8.193590564554    0.049142228579   -0.901476000000
 H    6.991376564554    1.024389228579    0.000000000000
 H    8.193590564554    0.049142228579    0.901476000000
 C    7.562741564554    0.084670228579    0.000000000000
 S    6.364866564554   -1.287867771421    0.000000000000
 C    7.562741564554   -2.660405771421    0.000000000000
 H    8.193590564554   -2.624877771421    0.901476000000
 H    6.991376564554   -3.600124771421    0.000000000000
 H    8.193590564554   -2.624877771421   -0.901476000000
CS   -3.251384719837    0.600970822913    0.000000000000
