14

 C    0.558935736046   -2.784967662285    0.000000000000
 H    0.566657736046   -3.878142662285    0.000000000000
 C    1.769411736046   -2.065128662285    0.000000000000
 H    2.724430736046   -2.598827662285    0.000000000000
 C   -0.660888263954   -2.084961662285    0.000000000000
 H   -1.609020263954   -2.630773662285    0.000000000000
 C    1.767003736046   -0.659983662285    0.000000000000
 H    2.698357736046   -0.087444662285    0.000000000000
 C   -0.674739263954   -0.677480662285    0.000000000000
 H   -1.626738263954   -0.134759662285    0.000000000000
 C    0.541537736046    0.030301337715    0.000000000000
 O    0.602084736046    1.410762337715    0.000000000000
 H   -0.301046263954    1.759189337715    0.000000000000
 K   -1.327318908291    2.155124255959    0.000000000000
