14

 C    0.586267049176   -2.795512054449    0.000000000000
 H    0.593989049176   -3.888687054449    0.000000000000
 C    1.796743049176   -2.075673054449    0.000000000000
 H    2.751762049176   -2.609372054449    0.000000000000
 C   -0.633556950824   -2.095506054449    0.000000000000
 H   -1.581688950824   -2.641318054449    0.000000000000
 C    1.794335049176   -0.670528054449    0.000000000000
 H    2.725689049176   -0.097989054449    0.000000000000
 C   -0.647407950824   -0.688025054449    0.000000000000
 H   -1.599406950824   -0.145304054449    0.000000000000
 C    0.568869049176    0.019756945551    0.000000000000
 O    0.629416049176    1.400217945551    0.000000000000
 H   -0.273714950824    1.748644945551    0.000000000000
 K   -1.393285108283    2.180573947272    0.000000000000
