14

 C    0.859580180473   -2.900955976093    0.000000000000
 H    0.867302180473   -3.994130976093    0.000000000000
 C    2.070056180473   -2.181116976093    0.000000000000
 H    3.025075180473   -2.714815976093    0.000000000000
 C   -0.360243819527   -2.200949976093    0.000000000000
 H   -1.308375819527   -2.746761976093    0.000000000000
 C    2.067648180473   -0.775971976093    0.000000000000
 H    2.999002180473   -0.203432976093    0.000000000000
 C   -0.374094819527   -0.793468976093    0.000000000000
 H   -1.326093819527   -0.250747976093    0.000000000000
 C    0.842182180473   -0.085686976093    0.000000000000
 O    0.902729180473    1.294774023907    0.000000000000
 H   -0.000401819527    1.643201023907    0.000000000000
 K   -2.052947108202    2.435070860394    0.000000000000
