14

 C    0.941574119862   -2.932589152587    0.000000000000
 H    0.949296119862   -4.025764152587    0.000000000000
 C    2.152050119862   -2.212750152587    0.000000000000
 H    3.107069119862   -2.746449152587    0.000000000000
 C   -0.278249880138   -2.232583152587    0.000000000000
 H   -1.226381880138   -2.778395152587    0.000000000000
 C    2.149642119862   -0.807605152587    0.000000000000
 H    3.080996119862   -0.235066152587    0.000000000000
 C   -0.292100880138   -0.825102152587    0.000000000000
 H   -1.244099880138   -0.282381152587    0.000000000000
 C    0.924176119862   -0.117320152587    0.000000000000
 O    0.984723119862    1.263140847413    0.000000000000
 H    0.081592119862    1.611567847413    0.000000000000
 K   -2.250845708177    2.511419934331    0.000000000000
