14

 C    0.996236746122   -2.953677936915    0.000000000000
 H    1.003958746122   -4.046852936915    0.000000000000
 C    2.206712746122   -2.233838936915    0.000000000000
 H    3.161731746122   -2.767537936915    0.000000000000
 C   -0.223587253878   -2.253671936915    0.000000000000
 H   -1.171719253878   -2.799483936915    0.000000000000
 C    2.204304746122   -0.828693936915    0.000000000000
 H    3.135658746122   -0.256154936915    0.000000000000
 C   -0.237438253878   -0.846190936915    0.000000000000
 H   -1.189437253878   -0.303469936915    0.000000000000
 C    0.978838746122   -0.138408936915    0.000000000000
 O    1.039385746122    1.242052063085    0.000000000000
 H    0.136254746122    1.590479063085    0.000000000000
 K   -2.382778108161    2.562319316956    0.000000000000
