14

 C    1.078230685511   -2.985311113409    0.000000000000
 H    1.085952685511   -4.078486113409    0.000000000000
 C    2.288706685511   -2.265472113409    0.000000000000
 H    3.243725685511   -2.799171113409    0.000000000000
 C   -0.141593314489   -2.285305113409    0.000000000000
 H   -1.089725314489   -2.831117113409    0.000000000000
 C    2.286298685511   -0.860327113409    0.000000000000
 H    3.217652685511   -0.287788113409    0.000000000000
 C   -0.155444314489   -0.877824113409    0.000000000000
 H   -1.107443314489   -0.335103113409    0.000000000000
 C    1.060832685511   -0.170042113409    0.000000000000
 O    1.121379685511    1.210418886591    0.000000000000
 H    0.218248685511    1.558845886591    0.000000000000
 K   -2.580676708137    2.638668390893    0.000000000000
