14

 C    1.105561998640   -2.995855505573    0.000000000000
 H    1.113283998640   -4.089030505573    0.000000000000
 C    2.316037998640   -2.276016505573    0.000000000000
 H    3.271056998640   -2.809715505573    0.000000000000
 C   -0.114262001360   -2.295849505573    0.000000000000
 H   -1.062394001360   -2.841661505573    0.000000000000
 C    2.313629998640   -0.870871505573    0.000000000000
 H    3.244983998640   -0.298332505573    0.000000000000
 C   -0.128113001360   -0.888368505573    0.000000000000
 H   -1.080112001360   -0.345647505573    0.000000000000
 C    1.088163998640   -0.180586505573    0.000000000000
 O    1.148710998640    1.199874494427    0.000000000000
 H    0.245579998640    1.548301494427    0.000000000000
 K   -2.646642908129    2.664118082205    0.000000000000
