14

 C    1.132893311770   -3.006399897738    0.000000000000
 H    1.140615311770   -4.099574897738    0.000000000000
 C    2.343369311770   -2.286560897738    0.000000000000
 H    3.298388311770   -2.820259897738    0.000000000000
 C   -0.086930688230   -2.306393897738    0.000000000000
 H   -1.035062688230   -2.852205897738    0.000000000000
 C    2.340961311770   -0.881415897738    0.000000000000
 H    3.272315311770   -0.308876897738    0.000000000000
 C   -0.100781688230   -0.898912897738    0.000000000000
 H   -1.052780688230   -0.356191897738    0.000000000000
 C    1.115495311770   -0.191130897738    0.000000000000
 O    1.176042311770    1.189330102262    0.000000000000
 H    0.272911311770    1.537757102262    0.000000000000
 K   -2.712609108120    2.689567773517    0.000000000000
