14

 C    1.160224624900   -3.016944289902    0.000000000000
 H    1.167946624900   -4.110119289902    0.000000000000
 C    2.370700624900   -2.297105289902    0.000000000000
 H    3.325719624900   -2.830804289902    0.000000000000
 C   -0.059599375100   -2.316938289902    0.000000000000
 H   -1.007731375100   -2.862750289902    0.000000000000
 C    2.368292624900   -0.891960289902    0.000000000000
 H    3.299646624900   -0.319421289902    0.000000000000
 C   -0.073450375100   -0.909457289902    0.000000000000
 H   -1.025449375100   -0.366736289902    0.000000000000
 C    1.142826624900   -0.201675289902    0.000000000000
 O    1.203373624900    1.178785710098    0.000000000000
 H    0.300242624900    1.527212710098    0.000000000000
 K   -2.778575308112    2.715017464830    0.000000000000
