14

 C    1.187555938030   -3.027488682066    0.000000000000
 H    1.195277938030   -4.120663682066    0.000000000000
 C    2.398031938030   -2.307649682066    0.000000000000
 H    3.353050938030   -2.841348682066    0.000000000000
 C   -0.032268061970   -2.327482682066    0.000000000000
 H   -0.980400061970   -2.873294682066    0.000000000000
 C    2.395623938030   -0.902504682066    0.000000000000
 H    3.326977938030   -0.329965682066    0.000000000000
 C   -0.046119061970   -0.920001682066    0.000000000000
 H   -0.998118061970   -0.377280682066    0.000000000000
 C    1.170157938030   -0.212219682066    0.000000000000
 O    1.230704938030    1.168241317934    0.000000000000
 H    0.327573938030    1.516668317934    0.000000000000
 K   -2.844541508104    2.740467156142    0.000000000000
