14

 C    1.242218564289   -3.048577466395    0.000000000000
 H    1.249940564289   -4.141752466395    0.000000000000
 C    2.452694564289   -2.328738466395    0.000000000000
 H    3.407713564289   -2.862437466395    0.000000000000
 C    0.022394564289   -2.348571466395    0.000000000000
 H   -0.925737435711   -2.894383466395    0.000000000000
 C    2.450286564289   -0.923593466395    0.000000000000
 H    3.381640564289   -0.351054466395    0.000000000000
 C    0.008543564289   -0.941090466395    0.000000000000
 H   -0.943455435711   -0.398369466395    0.000000000000
 C    1.224820564289   -0.233308466395    0.000000000000
 O    1.285367564289    1.147152533605    0.000000000000
 H    0.382236564289    1.495579533605    0.000000000000
 K   -2.976473908088    2.791366538767    0.000000000000
