14

 C    1.406206443067   -3.111843819382    0.000000000000
 H    1.413928443067   -4.205018819382    0.000000000000
 C    2.616682443067   -2.392004819382    0.000000000000
 H    3.571701443067   -2.925703819382    0.000000000000
 C    0.186382443067   -2.411837819382    0.000000000000
 H   -0.761749556933   -2.957649819382    0.000000000000
 C    2.614274443067   -0.986859819382    0.000000000000
 H    3.545628443067   -0.414320819382    0.000000000000
 C    0.172531443067   -1.004356819382    0.000000000000
 H   -0.779467556933   -0.461635819382    0.000000000000
 C    1.388808443067   -0.296574819382    0.000000000000
 O    1.449355443067    1.083886180618    0.000000000000
 H    0.546224443067    1.432313180618    0.000000000000
 K   -3.372271108039    2.944064686640    0.000000000000
