14

 C    1.460869069327   -3.132932603711    0.000000000000
 H    1.468591069327   -4.226107603711    0.000000000000
 C    2.671345069327   -2.413093603711    0.000000000000
 H    3.626364069327   -2.946792603711    0.000000000000
 C    0.241045069327   -2.432926603711    0.000000000000
 H   -0.707086930673   -2.978738603711    0.000000000000
 C    2.668937069327   -1.007948603711    0.000000000000
 H    3.600291069327   -0.435409603711    0.000000000000
 C    0.227194069327   -1.025445603711    0.000000000000
 H   -0.724804930673   -0.482724603711    0.000000000000
 C    1.443471069327   -0.317663603711    0.000000000000
 O    1.504018069327    1.062797396289    0.000000000000
 H    0.600887069327    1.411224396289    0.000000000000
 K   -3.504203508023    2.994964069265    0.000000000000
