14

 C    1.624856948105   -3.196198956697    0.000000000000
 H    1.632578948105   -4.289373956697    0.000000000000
 C    2.835332948105   -2.476359956697    0.000000000000
 H    3.790351948105   -3.010058956697    0.000000000000
 C    0.405032948105   -2.496192956697    0.000000000000
 H   -0.543099051895   -3.042004956697    0.000000000000
 C    2.832924948105   -1.071214956697    0.000000000000
 H    3.764278948105   -0.498675956697    0.000000000000
 C    0.391181948105   -1.088711956697    0.000000000000
 H   -0.560817051895   -0.545990956697    0.000000000000
 C    1.607458948105   -0.380929956697    0.000000000000
 O    1.668005948105    0.999531043303    0.000000000000
 H    0.764874948105    1.347958043303    0.000000000000
 K   -3.900000707974    3.147662217139    0.000000000000
