14

 C    1.652188261235   -3.206743348862    0.000000000000
 H    1.659910261235   -4.299918348862    0.000000000000
 C    2.862664261235   -2.486904348862    0.000000000000
 H    3.817683261235   -3.020603348862    0.000000000000
 C    0.432364261235   -2.506737348862    0.000000000000
 H   -0.515767738765   -3.052549348862    0.000000000000
 C    2.860256261235   -1.081759348862    0.000000000000
 H    3.791610261235   -0.509220348862    0.000000000000
 C    0.418513261235   -1.099256348862    0.000000000000
 H   -0.533485738765   -0.556535348862    0.000000000000
 C    1.634790261235   -0.391474348862    0.000000000000
 O    1.695337261235    0.988986651138    0.000000000000
 H    0.792206261235    1.337413651138    0.000000000000
 K   -3.965966907966    3.173111908451    0.000000000000
