14

 C    1.679519574365   -3.217287741026    0.000000000000
 H    1.687241574365   -4.310462741026    0.000000000000
 C    2.889995574365   -2.497448741026    0.000000000000
 H    3.845014574365   -3.031147741026    0.000000000000
 C    0.459695574365   -2.517281741026    0.000000000000
 H   -0.488436425635   -3.063093741026    0.000000000000
 C    2.887587574365   -1.092303741026    0.000000000000
 H    3.818941574365   -0.519764741026    0.000000000000
 C    0.445844574365   -1.109800741026    0.000000000000
 H   -0.506154425635   -0.567079741026    0.000000000000
 C    1.662121574365   -0.402018741026    0.000000000000
 O    1.722668574365    0.978442258974    0.000000000000
 H    0.819537574365    1.326869258974    0.000000000000
 K   -4.031933107957    3.198561599763    0.000000000000
