14

 C    1.734182200624   -3.238376525355    0.000000000000
 H    1.741904200624   -4.331551525355    0.000000000000
 C    2.944658200624   -2.518537525355    0.000000000000
 H    3.899677200624   -3.052236525355    0.000000000000
 C    0.514358200624   -2.538370525355    0.000000000000
 H   -0.433773799376   -3.084182525355    0.000000000000
 C    2.942250200624   -1.113392525355    0.000000000000
 H    3.873604200624   -0.540853525355    0.000000000000
 C    0.500507200624   -1.130889525355    0.000000000000
 H   -0.451491799376   -0.588168525355    0.000000000000
 C    1.716784200624   -0.423107525355    0.000000000000
 O    1.777331200624    0.957353474645    0.000000000000
 H    0.874200200624    1.305780474645    0.000000000000
 K   -4.163865507941    3.249460982388    0.000000000000
