14

 C    1.788844826883   -3.259465309684    0.000000000000
 H    1.796566826883   -4.352640309684    0.000000000000
 C    2.999320826883   -2.539626309684    0.000000000000
 H    3.954339826883   -3.073325309684    0.000000000000
 C    0.569020826883   -2.559459309684    0.000000000000
 H   -0.379111173117   -3.105271309684    0.000000000000
 C    2.996912826883   -1.134481309684    0.000000000000
 H    3.928266826883   -0.561942309684    0.000000000000
 C    0.555169826883   -1.151978309684    0.000000000000
 H   -0.396829173117   -0.609257309684    0.000000000000
 C    1.771446826883   -0.444196309684    0.000000000000
 O    1.831993826883    0.936264690316    0.000000000000
 H    0.928862826883    1.284691690316    0.000000000000
 K   -4.295797907925    3.300360365012    0.000000000000
