14

 C    1.925501392532   -3.312187270506    0.000000000000
 H    1.933223392532   -4.405362270506    0.000000000000
 C    3.135977392532   -2.592348270506    0.000000000000
 H    4.090996392532   -3.126047270506    0.000000000000
 C    0.705677392532   -2.612181270506    0.000000000000
 H   -0.242454607468   -3.157993270506    0.000000000000
 C    3.133569392532   -1.187203270506    0.000000000000
 H    4.064923392532   -0.614664270506    0.000000000000
 C    0.691826392532   -1.204700270506    0.000000000000
 H   -0.260172607468   -0.661979270506    0.000000000000
 C    1.908103392532   -0.496918270506    0.000000000000
 O    1.968650392532    0.883542729494    0.000000000000
 H    1.065519392532    1.231969729494    0.000000000000
 K   -4.625628907884    3.427608821574    0.000000000000
