14

 C    1.952832705662   -3.322731662670    0.000000000000
 H    1.960554705662   -4.415906662670    0.000000000000
 C    3.163308705662   -2.602892662670    0.000000000000
 H    4.118327705662   -3.136591662670    0.000000000000
 C    0.733008705662   -2.622725662670    0.000000000000
 H   -0.215123294338   -3.168537662670    0.000000000000
 C    3.160900705662   -1.197747662670    0.000000000000
 H    4.092254705662   -0.625208662670    0.000000000000
 C    0.719157705662   -1.215244662670    0.000000000000
 H   -0.232841294338   -0.672523662670    0.000000000000
 C    1.935434705662   -0.507462662670    0.000000000000
 O    1.995981705662    0.872998337330    0.000000000000
 H    1.092850705662    1.221425337330    0.000000000000
 K   -4.691595107876    3.453058512886    0.000000000000
