14

 C    2.034826645051   -3.354364839164    0.000000000000
 H    2.042548645051   -4.447539839164    0.000000000000
 C    3.245302645051   -2.634525839164    0.000000000000
 H    4.200321645051   -3.168224839164    0.000000000000
 C    0.815002645051   -2.654358839164    0.000000000000
 H   -0.133129354949   -3.200170839164    0.000000000000
 C    3.242894645051   -1.229380839164    0.000000000000
 H    4.174248645051   -0.656841839164    0.000000000000
 C    0.801151645051   -1.246877839164    0.000000000000
 H   -0.150847354949   -0.704156839164    0.000000000000
 C    2.017428645051   -0.539095839164    0.000000000000
 O    2.077975645051    0.841365160836    0.000000000000
 H    1.174844645051    1.189792160836    0.000000000000
 K   -4.889493707852    3.529407586823    0.000000000000
