14

 C    2.062157958181   -3.364909231328    0.000000000000
 H    2.069879958181   -4.458084231328    0.000000000000
 C    3.272633958181   -2.645070231328    0.000000000000
 H    4.227652958181   -3.178769231328    0.000000000000
 C    0.842333958181   -2.664903231328    0.000000000000
 H   -0.105798041819   -3.210715231328    0.000000000000
 C    3.270225958181   -1.239925231328    0.000000000000
 H    4.201579958181   -0.667386231328    0.000000000000
 C    0.828482958181   -1.257422231328    0.000000000000
 H   -0.123516041819   -0.714701231328    0.000000000000
 C    2.044759958181   -0.549640231328    0.000000000000
 O    2.105306958181    0.830820768672    0.000000000000
 H    1.202175958181    1.179247768672    0.000000000000
 K   -4.955459907843    3.554857278135    0.000000000000
