14

 C    2.253477150089   -3.438719976479    0.000000000000
 H    2.261199150089   -4.531894976479    0.000000000000
 C    3.463953150089   -2.718880976479    0.000000000000
 H    4.418972150089   -3.252579976479    0.000000000000
 C    1.033653150089   -2.738713976479    0.000000000000
 H    0.085521150089   -3.284525976479    0.000000000000
 C    3.461545150089   -1.313735976479    0.000000000000
 H    4.392899150089   -0.741196976479    0.000000000000
 C    1.019802150089   -1.331232976479    0.000000000000
 H    0.067803150089   -0.788511976479    0.000000000000
 C    2.236079150089   -0.623450976479    0.000000000000
 O    2.296626150089    0.757010023521    0.000000000000
 H    1.393495150089    1.105437023521    0.000000000000
 K   -5.417223307786    3.733005117321    0.000000000000
