14

 C    2.335471089478   -3.470353152972    0.000000000000
 H    2.343193089478   -4.563528152972    0.000000000000
 C    3.545947089478   -2.750514152972    0.000000000000
 H    4.500966089478   -3.284213152972    0.000000000000
 C    1.115647089478   -2.770347152972    0.000000000000
 H    0.167515089478   -3.316159152972    0.000000000000
 C    3.543539089478   -1.345369152972    0.000000000000
 H    4.474893089478   -0.772830152972    0.000000000000
 C    1.101796089478   -1.362866152972    0.000000000000
 H    0.149797089478   -0.820145152972    0.000000000000
 C    2.318073089478   -0.655084152972    0.000000000000
 O    2.378620089478    0.725376847028    0.000000000000
 H    1.475489089478    1.073803847028    0.000000000000
 K   -5.615121907762    3.809354191258    0.000000000000
