14

 C    2.362802402608   -3.480897545137    0.000000000000
 H    2.370524402608   -4.574072545137    0.000000000000
 C    3.573278402608   -2.761058545137    0.000000000000
 H    4.528297402608   -3.294757545137    0.000000000000
 C    1.142978402608   -2.780891545137    0.000000000000
 H    0.194846402608   -3.326703545137    0.000000000000
 C    3.570870402608   -1.355913545137    0.000000000000
 H    4.502224402608   -0.783374545137    0.000000000000
 C    1.129127402608   -1.373410545137    0.000000000000
 H    0.177128402608   -0.830689545137    0.000000000000
 C    2.345404402608   -0.665628545137    0.000000000000
 O    2.405951402608    0.714832454863    0.000000000000
 H    1.502820402608    1.063259454863    0.000000000000
 K   -5.681088107754    3.834803882571    0.000000000000
