14

 C    2.390133715737   -3.491441937301    0.000000000000
 H    2.397855715737   -4.584616937301    0.000000000000
 C    3.600609715737   -2.771602937301    0.000000000000
 H    4.555628715737   -3.305301937301    0.000000000000
 C    1.170309715737   -2.791435937301    0.000000000000
 H    0.222177715737   -3.337247937301    0.000000000000
 C    3.598201715737   -1.366457937301    0.000000000000
 H    4.529555715737   -0.793918937301    0.000000000000
 C    1.156458715737   -1.383954937301    0.000000000000
 H    0.204459715737   -0.841233937301    0.000000000000
 C    2.372735715737   -0.676172937301    0.000000000000
 O    2.433282715737    0.704288062699    0.000000000000
 H    1.530151715737    1.052715062699    0.000000000000
 K   -5.747054307746    3.860253573883    0.000000000000
