14

 C    2.526790281386   -3.544163898123    0.000000000000
 H    2.534512281386   -4.637338898123    0.000000000000
 C    3.737266281386   -2.824324898123    0.000000000000
 H    4.692285281386   -3.358023898123    0.000000000000
 C    1.306966281386   -2.844157898123    0.000000000000
 H    0.358834281386   -3.389969898123    0.000000000000
 C    3.734858281386   -1.419179898123    0.000000000000
 H    4.666212281386   -0.846640898123    0.000000000000
 C    1.293115281386   -1.436676898123    0.000000000000
 H    0.341116281386   -0.893955898123    0.000000000000
 C    2.509392281386   -0.728894898123    0.000000000000
 O    2.569939281386    0.651566101877    0.000000000000
 H    1.666808281386    0.999993101877    0.000000000000
 K   -6.076885307705    3.987502030444    0.000000000000
