14

 C    2.581452907645   -3.565252682452    0.000000000000
 H    2.589174907645   -4.658427682452    0.000000000000
 C    3.791928907645   -2.845413682452    0.000000000000
 H    4.746947907645   -3.379112682452    0.000000000000
 C    1.361628907645   -2.865246682452    0.000000000000
 H    0.413496907645   -3.411058682452    0.000000000000
 C    3.789520907645   -1.440268682452    0.000000000000
 H    4.720874907645   -0.867729682452    0.000000000000
 C    1.347777907645   -1.457765682452    0.000000000000
 H    0.395778907645   -0.915044682452    0.000000000000
 C    2.564054907645   -0.749983682452    0.000000000000
 O    2.624601907645    0.630477317548    0.000000000000
 H    1.721470907645    0.978904317548    0.000000000000
 K   -6.208817707689    4.038401413069    0.000000000000
