14

 C    2.636115533905   -3.586341466781    0.000000000000
 H    2.643837533905   -4.679516466781    0.000000000000
 C    3.846591533905   -2.866502466781    0.000000000000
 H    4.801610533905   -3.400201466781    0.000000000000
 C    1.416291533905   -2.886335466781    0.000000000000
 H    0.468159533905   -3.432147466781    0.000000000000
 C    3.844183533905   -1.461357466781    0.000000000000
 H    4.775537533905   -0.888818466781    0.000000000000
 C    1.402440533905   -1.478854466781    0.000000000000
 H    0.450441533905   -0.936133466781    0.000000000000
 C    2.618717533905   -0.771072466781    0.000000000000
 O    2.679264533905    0.609388533219    0.000000000000
 H    1.776133533905    0.957815533219    0.000000000000
 K   -6.340750107672    4.089300795693    0.000000000000
