14

 C    2.745440786424   -3.628519035439    0.000000000000
 H    2.753162786424   -4.721694035439    0.000000000000
 C    3.955916786424   -2.908680035439    0.000000000000
 H    4.910935786424   -3.442379035439    0.000000000000
 C    1.525616786424   -2.928513035439    0.000000000000
 H    0.577484786424   -3.474325035439    0.000000000000
 C    3.953508786424   -1.503535035439    0.000000000000
 H    4.884862786424   -0.930996035439    0.000000000000
 C    1.511765786424   -1.521032035439    0.000000000000
 H    0.559766786424   -0.978311035439    0.000000000000
 C    2.728042786424   -0.813250035439    0.000000000000
 O    2.788589786424    0.567210964561    0.000000000000
 H    1.885458786424    0.915637964561    0.000000000000
 K   -6.604614907640    4.191099560943    0.000000000000
