14

 C    2.772772099553   -3.639063427603    0.000000000000
 H    2.780494099553   -4.732238427603    0.000000000000
 C    3.983248099553   -2.919224427603    0.000000000000
 H    4.938267099553   -3.452923427603    0.000000000000
 C    1.552948099553   -2.939057427603    0.000000000000
 H    0.604816099553   -3.484869427603    0.000000000000
 C    3.980840099553   -1.514079427603    0.000000000000
 H    4.912194099553   -0.941540427603    0.000000000000
 C    1.539097099553   -1.531576427603    0.000000000000
 H    0.587098099553   -0.988855427603    0.000000000000
 C    2.755374099553   -0.823794427603    0.000000000000
 O    2.815921099553    0.556666572397    0.000000000000
 H    1.912790099553    0.905093572397    0.000000000000
 K   -6.670581107632    4.216549252255    0.000000000000
