14

 C    2.800103412683   -3.649607819768    0.000000000000
 H    2.807825412683   -4.742782819768    0.000000000000
 C    4.010579412683   -2.929768819768    0.000000000000
 H    4.965598412683   -3.463467819768    0.000000000000
 C    1.580279412683   -2.949601819768    0.000000000000
 H    0.632147412683   -3.495413819768    0.000000000000
 C    4.008171412683   -1.524623819768    0.000000000000
 H    4.939525412683   -0.952084819768    0.000000000000
 C    1.566428412683   -1.542120819768    0.000000000000
 H    0.614429412683   -0.999399819768    0.000000000000
 C    2.782705412683   -0.834338819768    0.000000000000
 O    2.843252412683    0.546122180232    0.000000000000
 H    1.940121412683    0.894549180232    0.000000000000
 K   -6.736547307624    4.241998943567    0.000000000000
