14

 C    2.827434725813   -3.660152211932    0.000000000000
 H    2.835156725813   -4.753327211932    0.000000000000
 C    4.037910725813   -2.940313211932    0.000000000000
 H    4.992929725813   -3.474012211932    0.000000000000
 C    1.607610725813   -2.960146211932    0.000000000000
 H    0.659478725813   -3.505958211932    0.000000000000
 C    4.035502725813   -1.535168211932    0.000000000000
 H    4.966856725813   -0.962629211932    0.000000000000
 C    1.593759725813   -1.552665211932    0.000000000000
 H    0.641760725813   -1.009944211932    0.000000000000
 C    2.810036725813   -0.844883211932    0.000000000000
 O    2.870583725813    0.535577788068    0.000000000000
 H    1.967452725813    0.884004788068    0.000000000000
 K   -6.802513507615    4.267448634880    0.000000000000
