25

 C    1.795491705084    1.181491115795    0.706048158994
 H    1.803271705084    2.127321115795    1.251898158994
 C    1.795491705084    1.181491115795   -0.706051841006
 H    1.803271705084    2.127321115795   -1.251901841006
 C    1.799021705084   -0.041378884205    1.411938158994
 H    1.807391705084   -0.041348884205    2.503988158994
 C    1.799021705084   -0.041378884205   -1.411941841006
 H    1.807391705084   -0.041348884205   -2.503991841006
 C    1.802861705084   -1.264198884205    0.705988158994
 H    1.813601705084   -2.210018884205    1.251948158994
 C    1.802861705084   -1.264198884205   -0.705991841006
 H    1.813601705084   -2.210018884205   -1.251951841006
LI   -0.095168294916    0.002181115795   -0.000001841006
 C   -1.786936920778   -1.181685718785   -0.706055273199
 H   -1.794729082009   -2.127519166693   -1.251908051833
 C   -1.786934854789   -1.181683387817    0.706060449847
 H   -1.794726253740   -2.127515023726    1.251916379115
 C   -1.790468452630    0.041177516260   -1.411943014977
 H   -1.798837863488    0.041155496527   -2.503990943814
 C   -1.790464430221    0.041177424339    1.411944165147
 H   -1.798832371730    0.041155371047    2.503992105243
 C   -1.794308178252    1.264005595303   -0.705978917688
 H   -1.805040976169    2.209835288616   -1.251928345654
 C   -1.794306219765    1.264003250563    0.705984140142
 H   -1.805038310696    2.209831128375    1.251936727258
