25

 C    1.986838553845    1.177100811876    0.706047886280
 H    1.994618553845    2.122930811876    1.251897886280
 C    1.986838553845    1.177100811876   -0.706052113720
 H    1.994618553845    2.122930811876   -1.251902113720
 C    1.990368553845   -0.045769188124    1.411937886280
 H    1.998738553845   -0.045739188124    2.503987886280
 C    1.990368553845   -0.045769188124   -1.411942113720
 H    1.998738553845   -0.045739188124   -2.503992113720
 C    1.994208553845   -1.268589188124    0.705987886280
 H    2.004948553845   -2.214409188124    1.251947886280
 C    1.994208553845   -1.268589188124   -0.705992113720
 H    2.004948553845   -2.214409188124   -1.251952113720
LI    0.096178553845   -0.002209188124   -0.000002113720
 C   -1.995484818139   -1.176900401571   -0.706054975995
 H   -2.003274261683   -2.122736597376   -1.251903031936
 C   -1.995482752150   -1.176898070603    0.706060747051
 H   -2.003271349739   -2.122732455426    1.251911953090
 C   -1.999016349991    0.045962833475   -1.411942717773
 H   -2.007386135997    0.045932789667   -2.503990643543
 C   -1.999012327582    0.045962741554    1.411944462351
 H   -2.007380479673    0.045932660394    2.503992400642
 C   -2.002856075613    1.268790912518   -0.705978620484
 H   -2.013591760278    2.214617887866   -1.251932700400
 C   -2.002854117127    1.268788567778    0.705984437346
 H   -2.013589013850    2.214613727830    1.251941677618
