25

 C    2.034675265892    1.176003230801    0.706047818102
 H    2.042455265892    2.121833230801    1.251897818102
 C    2.034675265892    1.176003230801   -0.706052181898
 H    2.042455265892    2.121833230801   -1.251902181898
 C    2.038205265892   -0.046866769199    1.411937818102
 H    2.046575265892   -0.046836769199    2.503987818102
 C    2.038205265892   -0.046866769199   -1.411942181898
 H    2.046575265892   -0.046836769199   -2.503992181898
 C    2.042045265892   -1.269686769199    0.705987818102
 H    2.052785265892   -2.215506769199    1.251947818102
 C    2.042045265892   -1.269686769199   -0.705992181898
 H    2.052785265892   -2.215506769199   -1.251952181898
LI    0.144015265892   -0.003306769199   -0.000002181898
 C   -2.047621792623   -1.175704077362   -0.706054901694
 H   -2.055410639783   -2.121540876167   -1.251901921276
 C   -2.047619726634   -1.175701746394    0.706060821353
 H   -2.055407709477   -2.121536734440    1.251910990916
 C   -2.051153324475    0.047159157683   -1.411942643471
 H   -2.059523192792    0.047127353065   -2.503990568561
 C   -2.051149302066    0.047159065762    1.411944536653
 H   -2.059517500356    0.047127222960    2.503992474540
 C   -2.054993050097    1.269987236726   -0.705978546182
 H   -2.065729368233    2.215813615628   -1.251933646942
 C   -2.054991091610    1.269984891987    0.705984511647
 H   -2.065726604041    2.215809455637    1.251942773027
