25

 C    2.226022113620    1.171612890207    0.706047545391
 H    2.233802113620    2.117442890207    1.251897545391
 C    2.226022113620    1.171612890207   -0.706052454609
 H    2.233802113620    2.117442890207   -1.251902454609
 C    2.229552113620   -0.051257109793    1.411937545391
 H    2.237922113620   -0.051227109793    2.503987545391
 C    2.229552113620   -0.051257109793   -1.411942454609
 H    2.237922113620   -0.051227109793   -2.503992454609
 C    2.233392113620   -1.274077109793    0.705987545391
 H    2.244132113620   -2.219897109793    1.251947545391
 C    2.233392113620   -1.274077109793   -0.705992454609
 H    2.244132113620   -2.219897109793   -1.251952454609
LI    0.335362113620   -0.007697109793   -0.000002454609
 C   -2.256169691018   -1.170918796823   -0.706054604487
 H   -2.263956418233   -2.116757739051   -1.251897940201
 C   -2.256167625029   -1.170916465855    0.706061118560
 H   -2.263953422658   -2.116753598117    1.251907603838
 C   -2.259701222870    0.051944438223   -1.411942346264
 H   -2.268071383736    0.051906374605   -2.503990268912
 C   -2.259697200460    0.051944346301    1.411944833860
 H   -2.268065562935    0.051906241547    2.503992770288
 C   -2.263540948492    1.274772517265   -0.705978248975
 H   -2.274279518378    2.220596775992   -1.251936978479
 C   -2.263538990005    1.274770172526    0.705984808854
 H   -2.274276691038    2.220592616161    1.251946699916
