25

 C    2.273858825452    1.170515301517    0.706047477214
 H    2.281638825452    2.116345301517    1.251897477214
 C    2.273858825452    1.170515301517   -0.706052522786
 H    2.281638825452    2.116345301517   -1.251902522786
 C    2.277388825452   -0.052354698483    1.411937477214
 H    2.285758825452   -0.052324698483    2.503987477214
 C    2.277388825452   -0.052354698483   -1.411942522786
 H    2.285758825452   -0.052324698483   -2.503992522786
 C    2.281228825452   -1.275174698483    0.705987477214
 H    2.291968825452   -2.220994698483    1.251947477214
 C    2.281228825452   -1.275174698483   -0.705992522786
 H    2.291968825452   -2.220994698483   -1.251952522786
LI    0.383198825452   -0.008794698483   -0.000002522786
 C   -2.308306665716   -1.169722480229   -0.706054530185
 H   -2.316092920666   -2.115561899946   -1.251897045242
 C   -2.308304599727   -1.169720149261    0.706061192862
 H   -2.316089910550   -2.115557759188    1.251906857389
 C   -2.311838197569    0.053140754816   -1.411942271962
 H   -2.320208423598    0.053101296883   -2.503990194061
 C   -2.311834175159    0.053140662895    1.411944908162
 H   -2.320202574201    0.053101163168    2.503992844260
 C   -2.315677923191    1.275968833859   -0.705978174673
 H   -2.326416994699    2.221792620266   -1.251937712560
 C   -2.315675964704    1.275966489119    0.705984883156
 H   -2.326414153291    2.221788460471    1.251947582810
