25

 C    2.321695537250    1.169417711592    0.706047409036
 H    2.329475537250    2.115247711592    1.251897409036
 C    2.321695537250    1.169417711592   -0.706052590964
 H    2.329475537250    2.115247711592   -1.251902590964
 C    2.325225537250   -0.053452288408    1.411937409036
 H    2.333595537250   -0.053422288408    2.503987409036
 C    2.325225537250   -0.053452288408   -1.411942590964
 H    2.333595537250   -0.053422288408   -2.503992590964
 C    2.329065537250   -1.276272288408    0.705987409036
 H    2.339805537250   -2.222092288408    1.251947409036
 C    2.329065537250   -1.276272288408   -0.705992590964
 H    2.339805537250   -2.222092288408   -1.251952590964
LI    0.431035537250   -0.009892288408   -0.000002590964
 C   -2.360443640449   -1.168526164871   -0.706054455883
 H   -2.368229443267   -2.114366041716   -1.251896185274
 C   -2.360441574460   -1.168523833903    0.706061267164
 H   -2.368226419231   -2.114361901127    1.251906145937
 C   -2.363975172302    0.054337070174   -1.411942197660
 H   -2.372345460715    0.054296277380   -2.503990119231
 C   -2.363971149892    0.054336978253    1.411944982464
 H   -2.372339583941    0.054296143036    2.503992918245
 C   -2.367814897924    1.277165149217   -0.705978100371
 H   -2.378554449666    2.222988483441   -1.251938412175
 C   -2.367812939437    1.277162804477    0.705984957458
 H   -2.378551594790    2.222984323681    1.251948431228
