25

 C    2.369532249014    1.168320120508    0.706047340859
 H    2.377312249014    2.114150120508    1.251897340859
 C    2.369532249014    1.168320120508   -0.706052659141
 H    2.377312249014    2.114150120508   -1.251902659141
 C    2.373062249014   -0.054549879492    1.411937340859
 H    2.381432249014   -0.054519879492    2.503987340859
 C    2.373062249014   -0.054549879492   -1.411942659141
 H    2.381432249014   -0.054519879492   -2.503992659141
 C    2.376902249014   -1.277369879492    0.705987340859
 H    2.387642249014   -2.223189879492    1.251947340859
 C    2.376902249014   -1.277369879492   -0.705992659141
 H    2.387642249014   -2.223189879492   -1.251952659141
LI    0.478872249014   -0.010989879492   -0.000002659141
 C   -2.412580615215   -1.167329850671   -0.706054381581
 H   -2.420365984776   -2.113170165559   -1.251895358106
 C   -2.412578549226   -1.167327519703    0.706061341466
 H   -2.420362947401   -2.113166025131    1.251905467288
 C   -2.416112147068    0.055533384374   -1.411942123358
 H   -2.424482495257    0.055491312448   -2.503990044423
 C   -2.416108124658    0.055533292453    1.411945056766
 H   -2.424476592249    0.055491177502    2.503992992241
 C   -2.419951872690    1.278361463417   -0.705978026069
 H   -2.430691884615    2.224184364335   -1.251939079481
 C   -2.419949914203    1.278359118677    0.705985031760
 H   -2.430689016834    2.224180204608    1.251949247331
