25

 C    2.417368960749    1.167222528338    0.706047272682
 H    2.425148960749    2.113052528338    1.251897272682
 C    2.417368960749    1.167222528338   -0.706052727318
 H    2.425148960749    2.113052528338   -1.251902727318
 C    2.420898960749   -0.055647471662    1.411937272682
 H    2.429268960749   -0.055617471662    2.503987272682
 C    2.420898960749   -0.055647471662   -1.411942727318
 H    2.429268960749   -0.055617471662   -2.503992727318
 C    2.424738960749   -1.278467471662    0.705987272682
 H    2.435478960749   -2.224287471662    1.251947272682
 C    2.424738960749   -1.278467471662   -0.705992727318
 H    2.435478960749   -2.224287471662   -1.251952727318
LI    0.526708960749   -0.012087471662   -0.000002727318
 C   -2.464717590012   -1.166133537558   -0.706054307278
 H   -2.472502544032   -2.111974272574   -1.251894561726
 C   -2.464715524023   -1.166131206590    0.706061415768
 H   -2.472499493863   -2.111970132302    1.251904819431
 C   -2.468249121864    0.056729697487   -1.411942049056
 H   -2.476619527382    0.056686398741   -2.503989969633
 C   -2.468245099454    0.056729605566    1.411945131068
 H   -2.476613599214    0.056686263217    2.503993066249
 C   -2.472088847486    1.279557776530   -0.705977951767
 H   -2.482829300776    2.225380261859   -1.251939716461
 C   -2.472086888999    1.279555431790    0.705985106063
 H   -2.482826420618    2.225376102164    1.251950033099
