25

 C    2.465205672454    1.166124935146    0.706047204504
 H    2.472985672454    2.111954935146    1.251897204504
 C    2.465205672454    1.166124935146   -0.706052795496
 H    2.472985672454    2.111954935146   -1.251902795496
 C    2.468735672454   -0.056745064854    1.411937204504
 H    2.477105672454   -0.056715064854    2.503987204504
 C    2.468735672454   -0.056745064854   -1.411942795496
 H    2.477105672454   -0.056715064854   -2.503992795496
 C    2.472575672454   -1.279565064854    0.705987204504
 H    2.483315672454   -2.225385064854    1.251947204504
 C    2.472575672454   -1.279565064854   -0.705992795496
 H    2.483315672454   -2.225385064854   -1.251952795496
LI    0.574545672454   -0.013185064854   -0.000002795496
 C   -2.516854564837   -1.164937225467   -0.706054232976
 H   -2.524639119968   -2.110778363774   -1.251893794283
 C   -2.516852498848   -1.164934894499    0.706061490070
 H   -2.524636057518   -2.110774223650    1.251904200515
 C   -2.520386096690    0.057926009579   -1.411941974754
 H   -2.528756557238    0.057881533179   -2.503989894862
 C   -2.520382074280    0.057925917657    1.411945205370
 H   -2.528750604917    0.057881397100    2.503993140267
 C   -2.524225822312    1.280754088621   -0.705977877464
 H   -2.534966699278    2.226576175015   -1.251940324938
 C   -2.524223863825    1.280751743882    0.705985180365
 H   -2.534963807237    2.226572015351    1.251950790357
