25

 C    2.513042384132    1.165027340992    0.706047136327
 H    2.520822384132    2.110857340992    1.251897136327
 C    2.513042384132    1.165027340992   -0.706052863673
 H    2.520822384132    2.110857340992   -1.251902863673
 C    2.516572384132   -0.057842659008    1.411937136327
 H    2.524942384132   -0.057812659008    2.503987136327
 C    2.516572384132   -0.057842659008   -1.411942863673
 H    2.524942384132   -0.057812659008   -2.503992863673
 C    2.520412384132   -1.280662659008    0.705987136327
 H    2.531152384132   -2.226482659008    1.251947136327
 C    2.520412384132   -1.280662659008   -0.705992863673
 H    2.531152384132   -2.226482659008   -1.251952863673
LI    0.622382384132   -0.014282659008   -0.000002863673
 C   -2.568991539689   -1.163740914337   -0.706054158674
 H   -2.576775711601   -2.109582440089   -1.251893054073
 C   -2.568989473700   -1.163738583369    0.706061564373
 H   -2.576772637353   -2.109578300108    1.251903608835
 C   -2.572523071542    0.059122320709   -1.411941900451
 H   -2.580893584956    0.059076712925   -2.503989820107
 C   -2.572519049132    0.059122228787    1.411945279673
 H   -2.580887609432    0.059076576313    2.503993214296
 C   -2.576362797164    1.281950399751   -0.705977803162
 H   -2.587104081161    2.227772102881   -1.251940906591
 C   -2.576360838677    1.281948055012    0.705985254667
 H   -2.587101177705    2.227767943246    1.251951520784
