25

 C    2.704389230605    1.160636955815    0.706046863619
 H    2.712169230605    2.106466955815    1.251896863619
 C    2.704389230605    1.160636955815   -0.706053136381
 H    2.712169230605    2.106466955815   -1.251903136381
 C    2.707919230605   -0.062233044185    1.411936863619
 H    2.716289230605   -0.062203044185    2.503986863619
 C    2.707919230605   -0.062233044185   -1.411943136381
 H    2.716289230605   -0.062203044185   -2.503993136381
 C    2.711759230605   -1.285053044185    0.705986863619
 H    2.722499230605   -2.230873044185    1.251946863619
 C    2.711759230605   -1.285053044185   -0.705993136381
 H    2.722499230605   -2.230873044185   -1.251953136381
LI    0.813729230605   -0.018673044185   -0.000003136381
 C   -2.777539439340   -1.158955678380   -0.706053861464
 H   -2.785322217955   -2.104798612778   -1.251890335792
 C   -2.777537373351   -1.158953347412    0.706061861583
 H   -2.785319100811   -2.104794473316    1.251901484702
 C   -2.781070971192    0.063907556665   -1.411941603241
 H   -2.789441676799    0.063857835471   -2.503989521245
 C   -2.781066948782    0.063907464744    1.411945576883
 H   -2.789435616912    0.063857696925    2.503993510500
 C   -2.784910696814    1.286735635708   -0.705977505952
 H   -2.795653460667    2.232555945377   -1.251942994277
 C   -2.784908738327    1.286733290968    0.705985551877
 H   -2.795650515709    2.232551785849    1.251954203506
