25

 C    2.895736076750    1.156246559030    0.706046590912
 H    2.903516076750    2.102076559030    1.251896590912
 C    2.895736076750    1.156246559030   -0.706053409088
 H    2.903516076750    2.102076559030   -1.251903409088
 C    2.899266076750   -0.066623440970    1.411936590912
 H    2.907636076750   -0.066593440970    2.503986590912
 C    2.899266076750   -0.066623440970   -1.411943409088
 H    2.907636076750   -0.066593440970   -2.503993409088
 C    2.903106076750   -1.289443440970    0.705986590912
 H    2.913846076750   -2.235263440970    1.251946590912
 C    2.903106076750   -1.289443440970   -0.705993409088
 H    2.913846076750   -2.235263440970   -1.251953409088
LI    1.005076076750   -0.023063440970   -0.000003409088
 C   -2.986087339316   -1.154170454032   -0.706053564253
 H   -2.993868913846   -2.100014605760   -1.251887946314
 C   -2.986085273327   -1.154168123064    0.706062158794
 H   -2.993865759631   -2.100010466747    1.251899689410
 C   -2.989618871169    0.068692781013   -1.411941306030
 H   -2.997989742847    0.068639505064   -2.503989222593
 C   -2.989614848759    0.068692689092    1.411945874094
 H   -2.997983610056    0.068639364846    2.503993806829
 C   -2.993458596791    1.291520860056   -0.705977208741
 H   -3.004202639518    2.237339965492   -1.251944758086
 C   -2.993456638304    1.291518515317    0.705985849088
 H   -3.004199658694    2.237335806057    1.251956562267
