25

 C    2.991409499721    1.154051356999    0.706046454559
 H    2.999189499721    2.099881356999    1.251896454559
 C    2.991409499721    1.154051356999   -0.706053545441
 H    2.999189499721    2.099881356999   -1.251903545441
 C    2.994939499721   -0.068818643001    1.411936454559
 H    3.003309499721   -0.068788643001    2.503986454559
 C    2.994939499721   -0.068818643001   -1.411943545441
 H    3.003309499721   -0.068788643001   -2.503993545441
 C    2.998779499721   -1.291638643001    0.705986454559
 H    3.009519499721   -2.237458643001    1.251946454559
 C    2.998779499721   -1.291638643001   -0.705993545441
 H    3.009519499721   -2.237458643001   -1.251953545441
LI    1.100749499721   -0.025258643001   -0.000003545441
 C   -3.090361289407   -1.151777845496   -0.706053415647
 H   -3.098142321198   -2.097622545926   -1.251886854632
 C   -3.090359223418   -1.151775514528    0.706062307400
 H   -3.098139150274   -2.097618407115    1.251898894834
 C   -3.093892821260    0.071085389549   -1.411941157425
 H   -3.102263767788    0.071030511320   -2.503989073334
 C   -3.093888798850    0.071085297628    1.411946022699
 H   -3.102257602136    0.071030370349    2.503993955033
 C   -3.097732546882    1.293913468592   -0.705977060135
 H   -3.108477166052    2.239732031223   -1.251945538477
 C   -3.097730588395    1.293911123852    0.705985997694
 H   -3.108474169062    2.239727871829    1.251957640109
