25

 C    3.087082922632    1.151856152851    0.706046318206
 H    3.094862922632    2.097686152851    1.251896318206
 C    3.087082922632    1.151856152851   -0.706053681794
 H    3.094862922632    2.097686152851   -1.251903681794
 C    3.090612922632   -0.071013847149    1.411936318206
 H    3.098982922632   -0.070983847149    2.503986318206
 C    3.090612922632   -0.071013847149   -1.411943681794
 H    3.098982922632   -0.070983847149   -2.503993681794
 C    3.094452922632   -1.293833847149    0.705986318206
 H    3.105192922632   -2.239653847149    1.251946318206
 C    3.094452922632   -1.293833847149   -0.705993681794
 H    3.105192922632   -2.239653847149   -1.251953681794
LI    1.196422922632   -0.027453847149   -0.000003681794
 C   -3.194635239558   -1.149385239078   -0.706053267041
 H   -3.202415763119   -2.095230453317   -1.251885822916
 C   -3.194633173569   -1.149382908109    0.706062456005
 H   -3.202412576548   -2.095226314695    1.251898160231
 C   -3.198166771410    0.073477995968   -1.411941008819
 H   -3.206537788025    0.073421617345   -2.503988924115
 C   -3.198162749000    0.073477904047    1.411946171305
 H   -3.206531591602    0.073421475670    2.503994103261
 C   -3.202006497032    1.296306075011   -0.705976911530
 H   -3.212751655991    2.242124129348   -1.251946259798
 C   -3.202004538545    1.296303730271    0.705986146300
 H   -3.212748643863    2.242119969994    1.251958658866
