25

 C    3.278429768297    1.147465738963    0.706046045500
 H    3.286209768297    2.093295738963    1.251896045500
 C    3.278429768297    1.147465738963   -0.706053954500
 H    3.286209768297    2.093295738963   -1.251903954500
 C    3.281959768297   -0.075404261037    1.411936045500
 H    3.290329768297   -0.075374261037    2.503986045500
 C    3.281959768297   -0.075404261037   -1.411943954500
 H    3.290329768297   -0.075374261037   -2.503993954500
 C    3.285799768297   -1.298224261037    0.705986045500
 H    3.296539768297   -2.244044261037    1.251946045500
 C    3.285799768297   -1.298224261037   -0.705993954500
 H    3.296539768297   -2.244044261037   -1.251953954500
LI    1.387769768297   -0.031844261037   -0.000003954500
 C   -3.403183140016   -1.144600031832   -0.706052969829
 H   -3.410962738266   -2.090446181534   -1.251883917876
 C   -3.403181074027   -1.144597700864    0.706062753218
 H   -3.410959523208   -2.090442043256    1.251896849434
 C   -3.406714671868    0.078263203213   -1.411940711607
 H   -3.415085816079    0.078204092914   -2.503988625780
 C   -3.406710649458    0.078263111292    1.411946468517
 H   -3.415079563632    0.078203949957    2.503994399780
 C   -3.410554397490    1.301091282256   -0.705976614317
 H   -3.421300539211    2.246908411166   -1.251947546419
 C   -3.410552439003    1.301088937517    0.705986443512
 H   -3.421297499521    2.246904251883    1.251960540319
