25

 C    3.374103191059    1.145270529547    0.706045909147
 H    3.381883191059    2.091100529547    1.251895909147
 C    3.374103191059    1.145270529547   -0.706054090853
 H    3.381883191059    2.091100529547   -1.251904090853
 C    3.377633191059   -0.077599470453    1.411935909147
 H    3.386003191059   -0.077569470453    2.503985909147
 C    3.377633191059   -0.077599470453   -1.411944090853
 H    3.386003191059   -0.077569470453   -2.503994090853
 C    3.381473191059   -1.300419470453    0.705985909147
 H    3.392213191059   -2.246239470453    1.251945909147
 C    3.381473191059   -1.300419470453   -0.705994090853
 H    3.392213191059   -2.246239470453   -1.251954090853
LI    1.483443191059   -0.034039470453   -0.000004090853
 C   -3.507457090314   -1.142207430681   -0.706052821223
 H   -3.515236266192   -2.088054007384   -1.251883035356
 C   -3.507455024325   -1.142205099712    0.706062901824
 H   -3.515233038131   -2.088049869264    1.251896264045
 C   -3.510988622167    0.080655804365   -1.411940563000
 H   -3.519359824616    0.080595447160   -2.503988476659
 C   -3.510984599757    0.080655712444    1.411946617124
 H   -3.519353546597    0.080595303618    2.503994548068
 C   -3.514828347789    1.303483883408   -0.705976465711
 H   -3.525574938103    2.249300589891   -1.251948120776
 C   -3.514826389302    1.303481538668    0.705986592118
 H   -3.525571885831    2.249296430641    1.251961412074
