25

 C    3.517613325128    1.141977712722    0.706045704619
 H    3.525393325128    2.087807712722    1.251895704619
 C    3.517613325128    1.141977712722   -0.706054295381
 H    3.525393325128    2.087807712722   -1.251904295381
 C    3.521143325128   -0.080892287278    1.411935704619
 H    3.529513325128   -0.080862287278    2.503985704619
 C    3.521143325128   -0.080892287278   -1.411944295381
 H    3.529513325128   -0.080862287278   -2.503994295381
 C    3.524983325128   -1.303712287278    0.705985704619
 H    3.535723325128   -2.249532287278    1.251945704619
 C    3.524983325128   -1.303712287278   -0.705994295381
 H    3.535723325128   -2.249532287278   -1.251954295381
LI    1.626953325128   -0.037332287278   -0.000004295381
 C   -3.663868015838   -1.138618531656   -0.706052598313
 H   -3.671646602210   -2.084465704324   -1.251881788125
 C   -3.663865949849   -1.138616200688    0.706063124733
 H   -3.671643355999   -2.084461566422    1.251895462519
 C   -3.667399547690    0.084244703390   -1.411940340091
 H   -3.675770831421    0.084182605885   -2.503988253029
 C   -3.667395525280    0.084244611468    1.411946840033
 H   -3.675764517709    0.084182461527    2.503994770530
 C   -3.671239273312    1.307072782432   -0.705976242802
 H   -3.681986489726    2.252888899333   -1.251948906907
 C   -3.671237314825    1.307070437693    0.705986815028
 H   -3.681983419895    2.252884740129    1.251962644284
