25

 C    3.613286747794    1.139782499874    0.706045568266
 H    3.621066747794    2.085612499874    1.251895568266
 C    3.613286747794    1.139782499874   -0.706054431734
 H    3.621066747794    2.085612499874   -1.251904431734
 C    3.616816747794   -0.083087500126    1.411935568266
 H    3.625186747794   -0.083057500126    2.503985568266
 C    3.616816747794   -0.083087500126   -1.411944431734
 H    3.625186747794   -0.083057500126   -2.503994431734
 C    3.620656747794   -1.305907500126    0.705985568266
 H    3.631396747794   -2.251727500126    1.251945568266
 C    3.620656747794   -1.305907500126   -0.705994431734
 H    3.631396747794   -2.251727500126   -1.251954431734
LI    1.722626747794   -0.039527500126   -0.000004431734
 C   -3.768141966233   -1.136225933937   -0.706052449707
 H   -3.775920186187   -2.082073477034   -1.251881002837
 C   -3.768139900244   -1.136223602969    0.706063273340
 H   -3.775916928696   -2.082069339269    1.251894974372
 C   -3.771673498085    0.086637301108   -1.411940191484
 H   -3.780044832335    0.086574121897   -2.503988103973
 C   -3.771669475675    0.086637209187    1.411946988640
 H   -3.780038496438    0.086573977032    2.503994918857
 C   -3.775513223707    1.309465380151   -0.705976094195
 H   -3.786260829282    2.255281130587   -1.251949385486
 C   -3.775511265220    1.309463035411    0.705986963634
 H   -3.786257748537    2.255276971411    1.251963420237
