25

 C    3.661123459115    1.138684893000    0.706045500090
 H    3.668903459115    2.084514893000    1.251895500090
 C    3.661123459115    1.138684893000   -0.706054499910
 H    3.668903459115    2.084514893000   -1.251904499910
 C    3.664653459115   -0.084185107000    1.411935500090
 H    3.673023459115   -0.084155107000    2.503985500090
 C    3.664653459115   -0.084185107000   -1.411944499910
 H    3.673023459115   -0.084155107000   -2.503994499910
 C    3.668493459115   -1.307005107000    0.705985500090
 H    3.679233459115   -2.252825107000    1.251945500090
 C    3.668493459115   -1.307005107000   -0.705994499910
 H    3.679233459115   -2.252825107000   -1.251954499910
LI    1.770463459115   -0.040625107000   -0.000004499910
 C   -3.820278941443   -1.135029635528   -0.706052375403
 H   -3.828056985526   -2.080877356421   -1.251880622942
 C   -3.820276875454   -1.135027304560    0.706063347643
 H   -3.828053722620   -2.080873218721    1.251894743050
 C   -3.823810473295    0.087833599518   -1.411940117181
 H   -3.832181831792    0.087769901115   -2.503988029454
 C   -3.823806450886    0.087833507596    1.411947062943
 H   -3.832175485248    0.087769756006    2.503994993026
 C   -3.827650198917    1.310661678560   -0.705976019892
 H   -3.838397991279    2.256477253101   -1.251949612216
 C   -3.827648240430    1.310659333821    0.705987037938
 H   -3.838394905296    2.256473093940    1.251963795652
