25

 C    3.708960170427    1.137587285841    0.706045431914
 H    3.716740170427    2.083417285841    1.251895431914
 C    3.708960170427    1.137587285841   -0.706054568086
 H    3.716740170427    2.083417285841   -1.251904568086
 C    3.712490170427   -0.085282714159    1.411935431914
 H    3.720860170427   -0.085252714159    2.503985431914
 C    3.712490170427   -0.085282714159   -1.411944568086
 H    3.720860170427   -0.085252714159   -2.503994568086
 C    3.716330170427   -1.308102714159    0.705985431914
 H    3.727070170427   -2.253922714159    1.251945431914
 C    3.716330170427   -1.308102714159   -0.705994568086
 H    3.727070170427   -2.253922714159   -1.251954568086
LI    1.818300170427   -0.041722714159   -0.000004568086
 C   -3.872415916661   -1.133833337403   -0.706052301100
 H   -3.880193789506   -2.079681231408   -1.251880251100
 C   -3.872413850672   -1.133831006435    0.706063421946
 H   -3.880190521328   -2.079677093772    1.251894519781
 C   -3.875947448514    0.089029897643   -1.411940042878
 H   -3.884318830618    0.088965693728   -2.503987954940
 C   -3.875943426104    0.089029805721    1.411947137246
 H   -3.884312473706    0.088965548383    2.503995067199
 C   -3.879787174136    1.311857976685   -0.705975945589
 H   -3.890535148363    2.257673379966   -1.251949831015
 C   -3.879785215649    1.311855631946    0.705987112241
 H   -3.890532057279    2.257669220817    1.251964163133
