25

 C    3.756796881732    1.136489678409    0.706045363738
 H    3.764576881732    2.082319678409    1.251895363738
 C    3.756796881732    1.136489678409   -0.706054636262
 H    3.764576881732    2.082319678409   -1.251904636262
 C    3.760326881732   -0.086380321591    1.411935363738
 H    3.768696881732   -0.086350321591    2.503985363738
 C    3.760326881732   -0.086380321591   -1.411944636262
 H    3.768696881732   -0.086350321591   -2.503994636262
 C    3.764166881732   -1.309200321591    0.705985363738
 H    3.774906881732   -2.255020321591    1.251945363738
 C    3.764166881732   -1.309200321591   -0.705994636262
 H    3.774906881732   -2.255020321591   -1.251954636262
LI    1.866136881732   -0.042820321591   -0.000004636262
 C   -3.924552891887   -1.132637039551   -0.706052226797
 H   -3.932330597947   -2.078485102166   -1.251879886995
 C   -3.924550825898   -1.132634708583    0.706063496250
 H   -3.932327324634   -2.078480964591    1.251894304250
 C   -3.928084423739    0.090226195494   -1.411939968574
 H   -3.936455828838    0.090161499215   -2.503987880431
 C   -3.928080401330    0.090226103573    1.411947211549
 H   -3.936449461828    0.090161353639    2.503995141374
 C   -3.931924149361    1.313054274537   -0.705975871285
 H   -3.942672300725    2.258869511011   -1.251950042192
 C   -3.931922190874    1.313051929797    0.705987186544
 H   -3.942669204673    2.258865351875    1.251964522989
