25

 C    3.804633593029    1.135392070715    0.706045295561
 H    3.812413593029    2.081222070715    1.251895295561
 C    3.804633593029    1.135392070715   -0.706054704439
 H    3.812413593029    2.081222070715   -1.251904704439
 C    3.808163593029   -0.087477929285    1.411935295561
 H    3.816533593029   -0.087447929285    2.503985295561
 C    3.808163593029   -0.087477929285   -1.411944704439
 H    3.816533593029   -0.087447929285   -2.503994704439
 C    3.812003593029   -1.310297929285    0.705985295561
 H    3.822743593029   -2.256117929285    1.251945295561
 C    3.812003593029   -1.310297929285   -0.705994704439
 H    3.822743593029   -2.256117929285   -1.251954704439
LI    1.913973593029   -0.043917929285   -0.000004704439
 C   -3.976689867120   -1.131440741962   -0.706052152494
 H   -3.984467410676   -2.077288968857   -1.251879530329
 C   -3.976687801131   -1.131438410994    0.706063570553
 H   -3.984464132361   -2.077284831343    1.251894096160
 C   -3.980221398973    0.091422493084   -1.411939894271
 H   -3.988592826474    0.091357317079   -2.503987805928
 C   -3.980217376563    0.091422401162    1.411947285853
 H   -3.988586449625    0.091357171278    2.503995215552
 C   -3.984061124595    1.314250572126   -0.705975796982
 H   -3.994809448547    2.260065646075   -1.251950246040
 C   -3.984059166108    1.314248227387    0.705987260847
 H   -3.994806347655    2.260061486952    1.251964875516
