25

 C    3.900307015603    1.133196854578    0.706045159209
 H    3.908087015603    2.079026854578    1.251895159209
 C    3.900307015603    1.133196854578   -0.706054840791
 H    3.908087015603    2.079026854578   -1.251904840791
 C    3.903837015603   -0.089673145422    1.411935159209
 H    3.912207015603   -0.089643145422    2.503985159209
 C    3.903837015603   -0.089673145422   -1.411944840791
 H    3.912207015603   -0.089643145422   -2.503994840791
 C    3.907677015603   -1.312493145422    0.705985159209
 H    3.918417015603   -2.258313145422    1.251945159209
 C    3.907677015603   -1.312493145422   -0.705994840791
 H    3.918417015603   -2.258313145422   -1.251954840791
LI    2.009647015603   -0.046113145422   -0.000004840791
 C   -4.080963817607   -1.129048147532   -0.706052003887
 H   -4.088741048358   -2.074896690653   -1.251878838201
 C   -4.080961751618   -1.129045816564    0.706063719160
 H   -4.088737760413   -2.074892553256    1.251893701184
 C   -4.084495349460    0.093815087513   -1.411939745664
 H   -4.092866820084    0.093748988082   -2.503987656935
 C   -4.084491327050    0.093814995592    1.411947434460
 H   -4.092860424297    0.093748841848    2.503995363918
 C   -4.088335075082    1.316643166556   -0.705975648375
 H   -4.099083731252    2.262457927657   -1.251950632851
 C   -4.088333116595    1.316640821816    0.705987409454
 H   -4.099080621043    2.262453768559    1.251965559678
