25

 C    3.948143726880    1.132099246154    0.706045091033
 H    3.955923726880    2.077929246154    1.251895091033
 C    3.948143726880    1.132099246154   -0.706054908967
 H    3.955923726880    2.077929246154   -1.251904908967
 C    3.951673726880   -0.090770753846    1.411935091033
 H    3.960043726880   -0.090740753846    2.503985091033
 C    3.951673726880   -0.090770753846   -1.411944908967
 H    3.960043726880   -0.090740753846   -2.503994908967
 C    3.955513726880   -1.313590753846    0.705985091033
 H    3.966253726880   -2.259410753846    1.251945091033
 C    3.955513726880   -1.313590753846   -0.705994908967
 H    3.966253726880   -2.259410753846   -1.251954908967
LI    2.057483726880   -0.047210753846   -0.000004908967
 C   -4.133100792861   -1.127851850673   -0.706051929583
 H   -4.140877873008   -2.073700546044   -1.251878502213
 C   -4.133098726872   -1.127849519705    0.706063793463
 H   -4.140874580426   -2.073696408703    1.251893513774
 C   -4.136632324714    0.095011384373   -1.411939671361
 H   -4.145003816100    0.094944840348   -2.503987582445
 C   -4.136628302304    0.095011292451    1.411947508763
 H   -4.144997411195    0.094944693906    2.503995438105
 C   -4.140472050336    1.317839463415   -0.705975574072
 H   -4.151220866456    2.263654073893   -1.251950816330
 C   -4.140470091849    1.317837118676    0.705987483758
 H   -4.151217751760    2.263649914806    1.251965891830
