25

 C    4.139490571927    1.127708810281    0.706044818329
 H    4.147270571927    2.073538810281    1.251894818329
 C    4.139490571927    1.127708810281   -0.706055181671
 H    4.147270571927    2.073538810281   -1.251905181671
 C    4.143020571927   -0.095161189719    1.411934818329
 H    4.151390571927   -0.095131189719    2.503984818329
 C    4.143020571927   -0.095161189719   -1.411945181671
 H    4.151390571927   -0.095131189719   -2.503995181671
 C    4.146860571927   -1.317981189719    0.705984818329
 H    4.157600571927   -2.263801189719    1.251944818329
 C    4.146860571927   -1.317981189719   -0.705995181671
 H    4.157600571927   -2.263801189719   -1.251955181671
LI    2.248830571927   -0.051601189719   -0.000005181671
 C   -4.341648693937   -1.123066665413   -0.706051632370
 H   -4.349425207143   -2.068915933919   -1.251877219904
 C   -4.341646627948   -1.123064334444    0.706064090677
 H   -4.349421897107   -2.068911796788    1.251892825783
 C   -4.345180225790    0.099796569633   -1.411939374147
 H   -4.353551795329    0.099728351964   -2.503987284529
 C   -4.345176203380    0.099796477712    1.411947805977
 H   -4.353545356099    0.099728204738    2.503995734880
 C   -4.349019951412    1.322624648676   -0.705975276858
 H   -4.359769369652    2.268438692136   -1.251951489527
 C   -4.349017992925    1.322622303936    0.705987780971
 H   -4.359766238070    2.268434533094    1.251967159704
