25

 C    4.283000705654    1.124415981299    0.706044613801
 H    4.290780705654    2.070245981299    1.251894613801
 C    4.283000705654    1.124415981299   -0.706055386199
 H    4.290780705654    2.070245981299   -1.251905386199
 C    4.286530705654   -0.098454018701    1.411934613801
 H    4.294900705654   -0.098424018701    2.503984613801
 C    4.286530705654   -0.098454018701   -1.411945386199
 H    4.294900705654   -0.098424018701   -2.503995386199
 C    4.290370705654   -1.321274018701    0.705984613801
 H    4.301110705654   -2.267094018701    1.251944613801
 C    4.290370705654   -1.321274018701   -0.705995386199
 H    4.301110705654   -2.267094018701   -1.251955386199
LI    2.392340705654   -0.054894018701   -0.000005386199
 C   -4.498059619802   -1.119477778544   -0.706051409459
 H   -4.505835741660   -2.065327442673   -1.251876317005
 C   -4.498057553813   -1.119475447576    0.706064313587
 H   -4.505832419576   -2.065323305687    1.251892368628
 C   -4.501591151655    0.103385456501   -1.411939151237
 H   -4.509962775140    0.103316083556   -2.503987061133
 C   -4.501587129245    0.103385364580    1.411948028887
 H   -4.509956312216    0.103315935789    2.503995957485
 C   -4.505430877277    1.326213535544   -0.705975053948
 H   -4.516180711148    2.272027187604   -1.251951936471
 C   -4.505428918790    1.326211190804    0.705988003882
 H   -4.516177567908    2.272023028592    1.251968052641
