25

 C    4.378674128113    1.122220761087    0.706044477449
 H    4.386454128113    2.068050761087    1.251894477449
 C    4.378674128113    1.122220761087   -0.706055522551
 H    4.386454128113    2.068050761087   -1.251905522551
 C    4.382204128113   -0.100649238913    1.411934477449
 H    4.390574128113   -0.100619238913    2.503984477449
 C    4.382204128113   -0.100649238913   -1.411945522551
 H    4.390574128113   -0.100619238913   -2.503995522551
 C    4.386044128113   -1.323469238913    0.705984477449
 H    4.396784128113   -2.269289238913    1.251944477449
 C    4.386044128113   -1.323469238913   -0.705995522551
 H    4.396784128113   -2.269289238913   -1.251955522551
LI    2.488014128113   -0.057089238913   -0.000005522551
 C   -4.602333570404   -1.117085188189   -0.706051260852
 H   -4.610109445872   -2.062935101397   -1.251875740283
 C   -4.602331504415   -1.117082857221    0.706064462194
 H   -4.610106116203   -2.062930964502    1.251892089073
 C   -4.605865102257    0.105778046857   -1.411939002630
 H   -4.614236759704    0.105707946560   -2.503986912219
 C   -4.605861079847    0.105777954936    1.411948177494
 H   -4.614230281863    0.105707798453    2.503996105900
 C   -4.609704827879    1.328606125899   -0.705974905341
 H   -4.620454923426    2.274419531536   -1.251952209598
 C   -4.609702869392    1.328603781160    0.705988152489
 H   -4.620451772848    2.274415372543    1.251968623091
