25

 C    4.426510839336    1.121123150732    0.706044409273
 H    4.434290839336    2.066953150732    1.251894409273
 C    4.426510839336    1.121123150732   -0.706055590727
 H    4.434290839336    2.066953150732   -1.251905590727
 C    4.430040839336   -0.101746849268    1.411934409273
 H    4.438410839336   -0.101716849268    2.503984409273
 C    4.430040839336   -0.101746849268   -1.411945590727
 H    4.438410839336   -0.101716849268   -2.503995590727
 C    4.433880839336   -1.324566849268    0.705984409273
 H    4.444620839336   -2.270386849268    1.251944409273
 C    4.433880839336   -1.324566849268   -0.705995590727
 H    4.444620839336   -2.270386849268   -1.251955590727
LI    2.535850839336   -0.058186849268   -0.000005590727
 C   -4.654470545712   -1.115888893260   -0.706051186549
 H   -4.662246302050   -2.061738926898   -1.251875458986
 C   -4.654468479723   -1.115886562292    0.706064536498
 H   -4.662242968714   -2.061734790048    1.251891956360
 C   -4.658002077565    0.106974341785   -1.411938928326
 H   -4.666373751432    0.106903889815   -2.503986837767
 C   -4.657998055155    0.106974249864    1.411948251798
 H   -4.666367266379    0.106903741543    2.503996180110
 C   -4.661841803187    1.329802420828   -0.705974831037
 H   -4.672592025255    2.275615707318   -1.251952339204
 C   -4.661839844700    1.329800076088    0.705988226792
 H   -4.672588871128    2.275611548335    1.251968901355
