25

 C    4.474347550554    1.120025540218    0.706044341097
 H    4.482127550554    2.065855540218    1.251894341097
 C    4.474347550554    1.120025540218   -0.706055658903
 H    4.482127550554    2.065855540218   -1.251905658903
 C    4.477877550554   -0.102844459782    1.411934341097
 H    4.486247550554   -0.102814459782    2.503984341097
 C    4.477877550554   -0.102844459782   -1.411945658903
 H    4.486247550554   -0.102814459782   -2.503995658903
 C    4.481717550554   -1.325664459782    0.705984341097
 H    4.492457550554   -2.271484459782    1.251944341097
 C    4.481717550554   -1.325664459782   -0.705995658903
 H    4.492457550554   -2.271484459782   -1.251955658903
LI    2.583687550554   -0.059284459782   -0.000005658903
 C   -4.706607521025   -1.114692598491   -0.706051112245
 H   -4.714383160826   -2.060542749937   -1.251875182193
 C   -4.706605455036   -1.114690267523    0.706064610801
 H   -4.714379823901   -2.060538613130    1.251891828152
 C   -4.710139052877    0.108170636554   -1.411938854023
 H   -4.718510742808    0.108099840564   -2.503986763318
 C   -4.710135030467    0.108170544633    1.411948326101
 H   -4.718504250699    0.108099692131    2.503996254323
 C   -4.713978778499    1.330998715597   -0.705974756734
 H   -4.724729124334    2.276811885534   -1.251952464372
 C   -4.713976820012    1.330996370857    0.705988301096
 H   -4.724725966736    2.276807726561    1.251969175182
