25

 C    4.522184261768    1.118927929550    0.706044272921
 H    4.529964261768    2.064757929550    1.251894272921
 C    4.522184261768    1.118927929550   -0.706055727079
 H    4.529964261768    2.064757929550   -1.251905727079
 C    4.525714261768   -0.103942070450    1.411934272921
 H    4.534084261768   -0.103912070450    2.503984272921
 C    4.525714261768   -0.103942070450   -1.411945727079
 H    4.534084261768   -0.103912070450   -2.503995727079
 C    4.529554261768   -1.326762070450    0.705984272921
 H    4.540294261768   -2.272582070450    1.251944272921
 C    4.529554261768   -1.326762070450   -0.705995727079
 H    4.540294261768   -2.272582070450   -1.251955727079
LI    2.631524261768   -0.060382070450   -0.000005727079
 C   -4.758744496341   -1.113496303876   -0.706051037942
 H   -4.766520022114   -2.059346570595   -1.251874909760
 C   -4.758742430352   -1.113493972908    0.706064685105
 H   -4.766516681679   -2.059342433830    1.251891704303
 C   -4.762276028194    0.109366931170   -1.411938779719
 H   -4.770647733842    0.109295798564   -2.503986688872
 C   -4.762272005784    0.109366839249    1.411948400405
 H   -4.770641234830    0.109295649974    2.503996328537
 C   -4.766115753816    1.332195010213   -0.705974682430
 H   -4.776866220754    2.278008066106   -1.251952585246
 C   -4.766113795329    1.332192665473    0.705988375399
 H   -4.776863059760    2.278003907141    1.251969444713
