25

 C    4.570020972978    1.117830318733    0.706044204745
 H    4.577800972978    2.063660318733    1.251894204745
 C    4.570020972978    1.117830318733   -0.706055795255
 H    4.577800972978    2.063660318733   -1.251905795255
 C    4.573550972978   -0.105039681267    1.411934204745
 H    4.581920972978   -0.105009681267    2.503984204745
 C    4.573550972978   -0.105039681267   -1.411945795255
 H    4.581920972978   -0.105009681267   -2.503995795255
 C    4.577390972978   -1.327859681267    0.705984204745
 H    4.588130972978   -2.273679681267    1.251944204745
 C    4.577390972978   -1.327859681267   -0.705995795255
 H    4.588130972978   -2.273679681267   -1.251955795255
LI    2.679360972978   -0.061479681267   -0.000005795255
 C   -4.810881471662   -1.112300009409   -0.706050963638
 H   -4.818656885834   -2.058150388946   -1.251874641546
 C   -4.810879405673   -1.112297678441    0.706064759408
 H   -4.818653541964   -2.058146252222    1.251891584675
 C   -4.814413003515    0.110563225636   -1.411938705416
 H   -4.822784724545    0.110491763585   -2.503986614429
 C   -4.814408981105    0.110563133715    1.411948474708
 H   -4.822778218776    0.110491614841    2.503996402753
 C   -4.818252729137    1.333391304679   -0.705974608127
 H   -4.829003314598    2.279204248957   -1.251952701963
 C   -4.818250770650    1.333388959939    0.705988449703
 H   -4.829000150280    2.279200090001    1.251969710086
