25

 C    4.617857684183    1.116732707772    0.706044136569
 H    4.625637684183    2.062562707772    1.251894136569
 C    4.617857684183    1.116732707772   -0.706055863431
 H    4.625637684183    2.062562707772   -1.251905863431
 C    4.621387684183   -0.106137292228    1.411934136569
 H    4.629757684183   -0.106107292228    2.503984136569
 C    4.621387684183   -0.106137292228   -1.411945863431
 H    4.629757684183   -0.106107292228   -2.503995863431
 C    4.625227684183   -1.328957292228    0.705984136569
 H    4.635967684183   -2.274777292228    1.251944136569
 C    4.625227684183   -1.328957292228   -0.705995863431
 H    4.635967684183   -2.274777292228   -1.251955863431
LI    2.727197684183   -0.062577292228   -0.000005863431
 C   -4.863018446987   -1.111103715087   -0.706050889335
 H   -4.870793751911   -2.056954205064   -1.251874377419
 C   -4.863016380998   -1.111101384119    0.706064833712
 H   -4.870790404677   -2.056950068381    1.251891469134
 C   -4.866549978840    0.111759519958   -1.411938631112
 H   -4.874921714928    0.111687735405   -2.503986539989
 C   -4.866545956430    0.111759428037    1.411948549012
 H   -4.874915202545    0.111687586509    2.503996476970
 C   -4.870389704462    1.334587599001   -0.705974533823
 H   -4.881140405949    2.280400434015   -1.251952814655
 C   -4.870387745975    1.334585254262    0.705988524006
 H   -4.881137238377    2.280396275068    1.251969971434
