25

 C    4.809204528968    1.112342262572    0.706043863865
 H    4.816984528968    2.058172262572    1.251893863865
 C    4.809204528968    1.112342262572   -0.706056136135
 H    4.816984528968    2.058172262572   -1.251906136135
 C    4.812734528968   -0.110527737428    1.411933863865
 H    4.821104528968   -0.110497737428    2.503983863865
 C    4.812734528968   -0.110527737428   -1.411946136135
 H    4.821104528968   -0.110497737428   -2.503996136135
 C    4.816574528968   -1.333347737428    0.705983863865
 H    4.827314528968   -2.279167737428    1.251943863865
 C    4.816574528968   -1.333347737428   -0.705996136135
 H    4.827314528968   -2.279167737428   -1.251956136135
LI    2.918544528968   -0.066967737428   -0.000006136135
 C   -5.071566348325   -1.106318539153   -0.706050592120
 H   -5.079341238345   -2.052169448557   -1.251873359294
 C   -5.071564282336   -1.106316208185    0.706065130926
 H   -5.079337878339   -2.052165312028    1.251891045357
 C   -5.075097880178    0.116544695892   -1.411938333898
 H   -5.083469673451    0.116471686542   -2.503986242255
 C   -5.075093857768    0.116544603971    1.411948846226
 H   -5.083463135949    0.116471537074    2.503996773858
 C   -5.078937605800    1.339372774935   -0.705974236609
 H   -5.089688747928    2.285185194988   -1.251953227611
 C   -5.078935647313    1.339370430195    0.705988821221
 H   -5.089685567997    2.285181036073    1.251970979001
