25

 C    5.048388084871    1.106854203316    0.706043522986
 H    5.056168084871    2.052684203316    1.251893522986
 C    5.048388084871    1.106854203316   -0.706056477014
 H    5.056168084871    2.052684203316   -1.251906477014
 C    5.051918084871   -0.116015796684    1.411933522986
 H    5.060288084871   -0.115985796684    2.503983522986
 C    5.051918084871   -0.116015796684   -1.411946477014
 H    5.060288084871   -0.115985796684   -2.503996477014
 C    5.055758084871   -1.338835796684    0.705983522986
 H    5.066498084871   -2.284655796684    1.251943522986
 C    5.055758084871   -1.338835796684   -0.705996477014
 H    5.066498084871   -2.284655796684   -1.251956477014
LI    3.157728084871   -0.072455796684   -0.000006477014
 C   -5.332251225075   -1.100337071992   -0.706050220602
 H   -5.340025641386   -2.046188460267   -1.251872164691
 C   -5.332249159086   -1.100334741024    0.706065502445
 H   -5.340022266796   -2.046184323914    1.251890593699
 C   -5.335782756928    0.122526163054   -1.411937962380
 H   -5.344154615489    0.122451755320   -2.503985870142
 C   -5.335778734518    0.122526071132    1.411949217744
 H   -5.344148049307    0.122451605198    2.503997145001
 C   -5.339622482550    1.345354242096   -0.705973865090
 H   -5.350374127770    2.291166188375   -1.251953666916
 C   -5.339620524063    1.345351897357    0.705989192739
 H   -5.350370933730    2.291162029497    1.251972161551
