25

 C    5.096224796043    1.105756591133    0.706043454810
 H    5.104004796043    2.051586591133    1.251893454810
 C    5.096224796043    1.105756591133   -0.706056545190
 H    5.104004796043    2.051586591133   -1.251906545190
 C    5.099754796043   -0.117113408867    1.411933454810
 H    5.108124796043   -0.117083408867    2.503983454810
 C    5.099754796043   -0.117113408867   -1.411946545190
 H    5.108124796043   -0.117083408867   -2.503996545190
 C    5.103594796043   -1.339933408867    0.705983454810
 H    5.114334796043   -2.285753408867    1.251943454810
 C    5.103594796043   -1.339933408867   -0.705996545190
 H    5.114334796043   -2.285753408867   -1.251956545190
LI    3.205564796043   -0.073553408867   -0.000006545190
 C   -5.384388200435   -1.099140778892   -0.706050146298
 H   -5.392162527422   -2.044992257464   -1.251871935185
 C   -5.384386134445   -1.099138447924    0.706065576748
 H   -5.392159150082   -2.044988121144    1.251890512784
 C   -5.387919732287    0.123722456153   -1.411937888076
 H   -5.396291603158    0.123647784740   -2.503985795726
 C   -5.387915709877    0.123722364232    1.411949292048
 H   -5.396285031569    0.123647634494    2.503997219233
 C   -5.391759457909    1.346550535196   -0.705973790787
 H   -5.402511197993    2.292362392139   -1.251953745503
 C   -5.391757499422    1.346548190457    0.705989267043
 H   -5.402508001292    2.292358233268    1.251972388784
