25

 C    5.191898218377    1.103561366458    0.706043318459
 H    5.199678218377    2.049391366458    1.251893318459
 C    5.191898218377    1.103561366458   -0.706056681541
 H    5.199678218377    2.049391366458   -1.251906681541
 C    5.195428218377   -0.119308633542    1.411933318459
 H    5.203798218377   -0.119278633542    2.503983318459
 C    5.195428218377   -0.119308633542   -1.411946681541
 H    5.203798218377   -0.119278633542   -2.503996681541
 C    5.199268218377   -1.342128633542    0.705983318459
 H    5.210008218377   -2.287948633542    1.251943318459
 C    5.199268218377   -1.342128633542   -0.705996681541
 H    5.210008218377   -2.287948633542   -1.251956681541
LI    3.301238218377   -0.075748633542   -0.000006681541
 C   -5.488662151162   -1.096748193000   -0.706049997691
 H   -5.496436304515   -2.042599847096   -1.251871484885
 C   -5.488660085173   -1.096745862032    0.706065725356
 H   -5.496432921830   -2.042595710841    1.251890359664
 C   -5.492193683014    0.126115042046   -1.411937739469
 H   -5.500565577815    0.126039858070   -2.503985646900
 C   -5.492189660605    0.126114950125    1.411949440655
 H   -5.500558995714    0.126039707584    2.503997367703
 C   -5.496033408636    1.348943121088   -0.705973642179
 H   -5.506785333124    2.294754804373   -1.251953894095
 C   -5.496031450149    1.348940776349    0.705989415650
 H   -5.506782131251    2.294750645516    1.251972834667
