25

 C    5.383245063012    1.099170915957    0.706043045756
 H    5.391025063012    2.045000915957    1.251893045756
 C    5.383245063012    1.099170915957   -0.706056954244
 H    5.391025063012    2.045000915957   -1.251906954244
 C    5.386775063012   -0.123699084043    1.411933045756
 H    5.395145063012   -0.123669084043    2.503983045756
 C    5.386775063012   -0.123699084043   -1.411946954244
 H    5.395145063012   -0.123669084043   -2.503996954244
 C    5.390615063012   -1.346519084043    0.705983045756
 H    5.401355063012   -2.292339084043    1.251943045756
 C    5.390615063012   -1.346519084043   -0.705996954244
 H    5.401355063012   -2.292339084043   -1.251956954244
LI    3.492585063012   -0.080139084043   -0.000006954244
 C   -5.697210052649   -1.091963022368   -0.706049700476
 H   -5.704983877521   -2.037815008522   -1.251870616927
 C   -5.697207986660   -1.091960691400    0.706066022570
 H   -5.704980484723   -2.037810872388    1.251890086072
 C   -5.700741584501    0.130900212678   -1.411937442254
 H   -5.709113524571    0.130824059037   -2.503985349271
 C   -5.700737562091    0.130900120757    1.411949737870
 H   -5.709106922583    0.130823908099    2.503997664656
 C   -5.704581310123    1.353728291721   -0.705973344965
 H   -5.715333583464    2.299539646478   -1.251954159124
 C   -5.704579351636    1.353725946981    0.705989712865
 H   -5.715330371807    2.299535487647    1.251973694270
