25

 C    5.622428618752    1.093682850874    0.706042704877
 H    5.630208618752    2.039512850874    1.251892704877
 C    5.622428618752    1.093682850874   -0.706057295123
 H    5.630208618752    2.039512850874   -1.251907295123
 C    5.625958618752   -0.129187149126    1.411932704877
 H    5.634328618752   -0.129157149126    2.503982704877
 C    5.625958618752   -0.129187149126   -1.411947295123
 H    5.634328618752   -0.129157149126   -2.503997295123
 C    5.629798618752   -1.352007149126    0.705982704877
 H    5.640538618752   -2.297827149126    1.251942704877
 C    5.629798618752   -1.352007149126   -0.705997295123
 H    5.640538618752   -2.297827149126   -1.251957295123
LI    3.731768618752   -0.085627149126   -0.000007295123
 C   -5.957894929562   -1.085981561033   -0.706049328958
 H   -5.965668375715   -2.031833930029   -1.251869587376
 C   -5.957892863573   -1.085979230065    0.706066394089
 H   -5.965664971258   -2.031829794036    1.251889799486
 C   -5.961426461415    0.136881674012   -1.411937070735
 H   -5.969798453676    0.136804402409   -2.503984977274
 C   -5.961422439005    0.136881582091    1.411950109389
 H   -5.969791828759    0.136804250948    2.503998035871
 C   -5.965266187037    1.359709753055   -0.705972973446
 H   -5.976018862585    2.305520729039   -1.251954435839
 C   -5.965264228550    1.359707408315    0.705990084383
 H   -5.976015639647    2.305516570238    1.251974714188
