25

 C    5.718102041033    1.091487624289    0.706042568525
 H    5.725882041033    2.037317624289    1.251892568525
 C    5.718102041033    1.091487624289   -0.706057431475
 H    5.725882041033    2.037317624289   -1.251907431475
 C    5.721632041033   -0.131382375711    1.411932568525
 H    5.730002041033   -0.131352375711    2.503982568525
 C    5.721632041033   -0.131382375711   -1.411947431475
 H    5.730002041033   -0.131352375711   -2.503997431475
 C    5.725472041033   -1.354202375711    0.705982568525
 H    5.736212041033   -2.300022375711    1.251942568525
 C    5.725472041033   -1.354202375711   -0.705997431475
 H    5.736212041033   -2.300022375711   -1.251957431475
LI    3.827442041033   -0.087822375711   -0.000007431475
 C   -6.062168880343   -1.083588977051   -0.706049180350
 H   -6.069942184001   -2.029441490092   -1.251869191183
 C   -6.062166814354   -1.083586646083    0.706066542696
 H   -6.069938775158   -2.029437354151    1.251889700479
 C   -6.065700412196    0.139274257994   -1.411936922128
 H   -6.074072424093    0.139196565755   -2.503984828486
 C   -6.065696389786    0.139274166073    1.411950257996
 H   -6.074065790550    0.139196414098    2.503998184365
 C   -6.069540137818    1.362102337037   -0.705972824839
 H   -6.080292964697    2.307913170506   -1.251954531131
 C   -6.069538179331    1.362099992297    0.705990232991
 H   -6.080289737515    2.307909011716    1.251975106758
