13

 C    1.432539242536    1.330991850707    0.127781468294
 H    1.467059242536    2.431843850707    0.127781468294
 H    1.957122242536    0.961846850707    1.021400468294
 H    1.957122242536    0.961846850707   -0.765837531706
 C   -0.010240757464    0.853940850707    0.127781468294
 H   -0.549414757464    1.225093850707   -0.766984531706
 H   -0.549414757464    1.225093850707    1.022547468294
 O   -0.009675757464   -0.574566149293    0.127781468294
 C   -1.339262757464   -1.084973149293    0.127781468294
 H   -1.892645757464   -0.754194149293   -0.771351531706
 H   -1.892645757464   -0.754194149293    1.026914468294
 H   -1.266179757464   -2.180448149293    0.127781468294
LI   -0.009499899890   -1.019192300839   -1.093818938728
