13

 C    1.432537827536    1.334569438962    0.137610812009
 H    1.467057827536    2.435421438962    0.137610812009
 H    1.957120827536    0.965424438962    1.031229812009
 H    1.957120827536    0.965424438962   -0.756008187991
 C   -0.010242172464    0.857518438962    0.137610812009
 H   -0.549416172464    1.228671438962   -0.757155187991
 H   -0.549416172464    1.228671438962    1.032376812009
 O   -0.009677172464   -0.570988561038    0.137610812009
 C   -1.339264172464   -1.081395561038    0.137610812009
 H   -1.892647172464   -0.750616561038   -0.761522187991
 H   -1.892647172464   -0.750616561038    1.036743812009
 H   -1.266181172464   -2.176870561038    0.137610812009
LI   -0.009487787384   -1.049816724241   -1.177958857091
