13

 C    1.432529337536    1.356034968491    0.196586874299
 H    1.467049337536    2.456886968491    0.196586874299
 H    1.957112337536    0.986889968491    1.090205874299
 H    1.957112337536    0.986889968491   -0.697032125701
 C   -0.010250662464    0.878983968491    0.196586874299
 H   -0.549424662464    1.250136968491   -0.698179125701
 H   -0.549424662464    1.250136968491    1.091352874299
 O   -0.009685662464   -0.549523031509    0.196586874299
 C   -1.339272662464   -1.059930031509    0.196586874299
 H   -1.892655662464   -0.729151031509   -0.702546125701
 H   -1.892655662464   -0.729151031509    1.095719874299
 H   -1.266189662464   -2.155405031509    0.196586874299
LI   -0.009415112350   -1.233563264657   -1.682798367273
