13

 C    1.432523677536    1.370345321510    0.235904249158
 H    1.467043677536    2.471197321510    0.235904249158
 H    1.957106677536    1.001200321510    1.129523249158
 H    1.957106677536    1.001200321510   -0.657714750842
 C   -0.010256322464    0.893294321510    0.235904249158
 H   -0.549430322464    1.264447321510   -0.658861750842
 H   -0.549430322464    1.264447321510    1.130670249158
 O   -0.009691322464   -0.535212678490    0.235904249158
 C   -1.339278322464   -1.045619678490    0.235904249158
 H   -1.892661322464   -0.714840678490   -0.663228750842
 H   -1.892661322464   -0.714840678490    1.135037249158
 H   -1.266195322464   -2.141094678490    0.235904249158
LI   -0.009366662327   -1.356060958267   -2.019358040728
