13

 C    1.432520847536    1.377500498019    0.255562936588
 H    1.467040847536    2.478352498019    0.255562936588
 H    1.957103847536    1.008355498019    1.149181936588
 H    1.957103847536    1.008355498019   -0.638056063412
 C   -0.010259152464    0.900449498019    0.255562936588
 H   -0.549433152464    1.271602498019   -0.639203063412
 H   -0.549433152464    1.271602498019    1.150328936588
 O   -0.009694152464   -0.528057501981    0.255562936588
 C   -1.339281152464   -1.038464501981    0.255562936588
 H   -1.892664152464   -0.707685501981   -0.643570063412
 H   -1.892664152464   -0.707685501981    1.154695936588
 H   -1.266198152464   -2.133939501981    0.255562936588
LI   -0.009342437316   -1.417309805073   -2.187637877455
