13

 C    1.432519432536    1.381078086274    0.265392280303
 H    1.467039432536    2.481930086274    0.265392280303
 H    1.957102432536    1.011933086274    1.159011280303
 H    1.957102432536    1.011933086274   -0.628226719697
 C   -0.010260567464    0.904027086274    0.265392280303
 H   -0.549434567464    1.275180086274   -0.629373719697
 H   -0.549434567464    1.275180086274    1.160158280303
 O   -0.009695567464   -0.524479913726    0.265392280303
 C   -1.339282567464   -1.034886913726    0.265392280303
 H   -1.892665567464   -0.704107913726   -0.633740719697
 H   -1.892665567464   -0.704107913726    1.164525280303
 H   -1.266199567464   -2.130361913726    0.265392280303
LI   -0.009330324810   -1.447934228475   -2.271777795819
