13

 C    1.432518017536    1.384655674529    0.275221624018
 H    1.467038017536    2.485507674529    0.275221624018
 H    1.957101017536    1.015510674529    1.168840624018
 H    1.957101017536    1.015510674529   -0.618397375982
 C   -0.010261982464    0.907604674529    0.275221624018
 H   -0.549435982464    1.278757674529   -0.619544375982
 H   -0.549435982464    1.278757674529    1.169987624018
 O   -0.009696982464   -0.520902325471    0.275221624018
 C   -1.339283982464   -1.031309325471    0.275221624018
 H   -1.892666982464   -0.700530325471   -0.623911375982
 H   -1.892666982464   -0.700530325471    1.174354624018
 H   -1.266200982464   -2.126784325471    0.275221624018
LI   -0.009318212304   -1.478558651878   -2.355917714182
