13

 C    1.432513772536    1.395388439293    0.304709655163
 H    1.467033772536    2.496240439293    0.304709655163
 H    1.957096772536    1.026243439293    1.198328655163
 H    1.957096772536    1.026243439293   -0.588909344837
 C   -0.010266227464    0.918337439293    0.304709655163
 H   -0.549440227464    1.289490439293   -0.590056344837
 H   -0.549440227464    1.289490439293    1.199475655163
 O   -0.009701227464   -0.510169560707    0.304709655163
 C   -1.339288227464   -1.020576560707    0.304709655163
 H   -1.892671227464   -0.689797560707   -0.594423344837
 H   -1.892671227464   -0.689797560707    1.203842655163
 H   -1.266205227464   -2.116051560707    0.304709655163
LI   -0.009281874787   -1.570431922086   -2.608337469273
