13

 C    1.432512357536    1.398966027548    0.314538998878
 H    1.467032357536    2.499818027548    0.314538998878
 H    1.957095357536    1.029821027548    1.208157998878
 H    1.957095357536    1.029821027548   -0.579080001122
 C   -0.010267642464    0.921915027548    0.314538998878
 H   -0.549441642464    1.293068027548   -0.580227001122
 H   -0.549441642464    1.293068027548    1.209304998878
 O   -0.009702642464   -0.506591972452    0.314538998878
 C   -1.339289642464   -1.016998972452    0.314538998878
 H   -1.892672642464   -0.686219972452   -0.584594001122
 H   -1.892672642464   -0.686219972452    1.213671998878
 H   -1.266206642464   -2.112473972452    0.314538998878
LI   -0.009269762281   -1.601056345488   -2.692477387637
