13

 C    1.432506697536    1.413276380567    0.353856373738
 H    1.467026697536    2.514128380567    0.353856373738
 H    1.957089697536    1.044131380567    1.247475373738
 H    1.957089697536    1.044131380567   -0.539762626262
 C   -0.010273302464    0.936225380567    0.353856373738
 H   -0.549447302464    1.307378380567   -0.540909626262
 H   -0.549447302464    1.307378380567    1.248622373738
 O   -0.009708302464   -0.492281619433    0.353856373738
 C   -1.339295302464   -1.002688619433    0.353856373738
 H   -1.892678302464   -0.671909619433   -0.545276626262
 H   -1.892678302464   -0.671909619433    1.252989373738
 H   -1.266212302464   -2.098163619433    0.353856373738
LI   -0.009221312258   -1.723554039099   -3.029037061092
