13

 C    1.432501037537    1.427586733586    0.393173748597
 H    1.467021037537    2.528438733586    0.393173748597
 H    1.957084037537    1.058441733586    1.286792748597
 H    1.957084037537    1.058441733586   -0.500445251403
 C   -0.010278962463    0.950535733586    0.393173748597
 H   -0.549452962463    1.321688733586   -0.501592251403
 H   -0.549452962463    1.321688733586    1.287939748597
 O   -0.009713962463   -0.477971266414    0.393173748597
 C   -1.339300962463   -0.988378266414    0.393173748597
 H   -1.892683962463   -0.657599266414   -0.505959251403
 H   -1.892683962463   -0.657599266414    1.292306748597
 H   -1.266217962463   -2.083853266414    0.393173748597
LI   -0.009172862235   -1.846051732709   -3.365596734546
