13

 C    1.432499622537    1.431164321841    0.403003092312
 H    1.467019622537    2.532016321841    0.403003092312
 H    1.957082622537    1.062019321841    1.296622092312
 H    1.957082622537    1.062019321841   -0.490615907688
 C   -0.010280377463    0.954113321841    0.403003092312
 H   -0.549454377463    1.325266321841   -0.491762907688
 H   -0.549454377463    1.325266321841    1.297769092312
 O   -0.009715377463   -0.474393678159    0.403003092312
 C   -1.339302377463   -0.984800678159    0.403003092312
 H   -1.892685377463   -0.654021678159   -0.496129907688
 H   -1.892685377463   -0.654021678159    1.302136092312
 H   -1.266219377463   -2.080275678159    0.403003092312
LI   -0.009160749730   -1.876676156112   -3.449736652910
