13

 C    1.432496792537    1.438319498350    0.422661779742
 H    1.467016792537    2.539171498350    0.422661779742
 H    1.957079792537    1.069174498350    1.316280779742
 H    1.957079792537    1.069174498350   -0.470957220258
 C   -0.010283207463    0.961268498350    0.422661779742
 H   -0.549457207463    1.332421498350   -0.472104220258
 H   -0.549457207463    1.332421498350    1.317427779742
 O   -0.009718207463   -0.467238501650    0.422661779742
 C   -1.339305207463   -0.977645501650    0.422661779742
 H   -1.892688207463   -0.646866501650   -0.476471220258
 H   -1.892688207463   -0.646866501650    1.321794779742
 H   -1.266222207463   -2.073120501650    0.422661779742
LI   -0.009136524718   -1.937925002917   -3.618016489637
