13

 C    1.432489717537    1.456207439624    0.471808498317
 H    1.467009717537    2.557059439624    0.471808498317
 H    1.957072717537    1.087062439624    1.365427498317
 H    1.957072717537    1.087062439624   -0.421810501683
 C   -0.010290282463    0.979156439624    0.471808498317
 H   -0.549464282463    1.350309439624   -0.422957501683
 H   -0.549464282463    1.350309439624    1.366574498317
 O   -0.009725282463   -0.449350560376    0.471808498317
 C   -1.339312282463   -0.959757560376    0.471808498317
 H   -1.892695282463   -0.628978560376   -0.427324501683
 H   -1.892695282463   -0.628978560376    1.370941498317
 H   -1.266229282463   -2.055232560376    0.471808498317
LI   -0.009075962190   -2.091047119930   -4.038716081456
