13

 C    1.432485472537    1.466940204389    0.501296529462
 H    1.467005472537    2.567792204389    0.501296529462
 H    1.957068472537    1.097795204389    1.394915529462
 H    1.957068472537    1.097795204389   -0.392322470538
 C   -0.010294527463    0.989889204389    0.501296529462
 H   -0.549468527463    1.361042204389   -0.393469470538
 H   -0.549468527463    1.361042204389    1.396062529462
 O   -0.009729527463   -0.438617795611    0.501296529462
 C   -1.339316527463   -0.949024795611    0.501296529462
 H   -1.892699527463   -0.618245795611   -0.397836470538
 H   -1.892699527463   -0.618245795611    1.400429529462
 H   -1.266233527463   -2.044499795611    0.501296529462
LI   -0.009039624672   -2.182920390138   -4.291135836547
