13

 C    1.432482642537    1.474095380898    0.520955216891
 H    1.467002642537    2.574947380898    0.520955216891
 H    1.957065642537    1.104950380898    1.414574216891
 H    1.957065642537    1.104950380898   -0.372663783109
 C   -0.010297357463    0.997044380898    0.520955216891
 H   -0.549471357463    1.368197380898   -0.373810783109
 H   -0.549471357463    1.368197380898    1.415721216891
 O   -0.009732357463   -0.431462619102    0.520955216891
 C   -1.339319357463   -0.941869619102    0.520955216891
 H   -1.892702357463   -0.611090619102   -0.378177783109
 H   -1.892702357463   -0.611090619102    1.420088216891
 H   -1.266236357463   -2.037344619102    0.520955216891
LI   -0.009015399661   -2.244169236943   -4.459415673274
