13

 C    1.432479812537    1.481250557408    0.540613904321
 H    1.466999812537    2.582102557408    0.540613904321
 H    1.957062812537    1.112105557408    1.434232904321
 H    1.957062812537    1.112105557408   -0.353005095679
 C   -0.010300187463    1.004199557408    0.540613904321
 H   -0.549474187463    1.375352557408   -0.354152095679
 H   -0.549474187463    1.375352557408    1.435379904321
 O   -0.009735187463   -0.424307442592    0.540613904321
 C   -1.339322187463   -0.934714442592    0.540613904321
 H   -1.892705187463   -0.603935442592   -0.358519095679
 H   -1.892705187463   -0.603935442592    1.439746904321
 H   -1.266239187463   -2.030189442592    0.540613904321
LI   -0.008991174649   -2.305418083748   -4.627695510001
