13

 C    1.432476982537    1.488405733917    0.560272591751
 H    1.466996982537    2.589257733917    0.560272591751
 H    1.957059982537    1.119260733917    1.453891591751
 H    1.957059982537    1.119260733917   -0.333346408249
 C   -0.010303017463    1.011354733917    0.560272591751
 H   -0.549477017463    1.382507733917   -0.334493408249
 H   -0.549477017463    1.382507733917    1.455038591751
 O   -0.009738017463   -0.417152266083    0.560272591751
 C   -1.339325017463   -0.927559266083    0.560272591751
 H   -1.892708017463   -0.596780266083   -0.338860408249
 H   -1.892708017463   -0.596780266083    1.459405591751
 H   -1.266242017463   -2.023034266083    0.560272591751
LI   -0.008966949638   -2.366666930553   -4.795975346729
