13

 C    1.432475567537    1.491983322172    0.570101935466
 H    1.466995567537    2.592835322172    0.570101935466
 H    1.957058567537    1.122838322172    1.463720935466
 H    1.957058567537    1.122838322172   -0.323517064534
 C   -0.010304432463    1.014932322172    0.570101935466
 H   -0.549478432463    1.386085322172   -0.324664064534
 H   -0.549478432463    1.386085322172    1.464867935466
 O   -0.009739432463   -0.413574677828    0.570101935466
 C   -1.339326432463   -0.923981677828    0.570101935466
 H   -1.892709432463   -0.593202677828   -0.329031064534
 H   -1.892709432463   -0.593202677828    1.469234935466
 H   -1.266243432463   -2.019456677828    0.570101935466
LI   -0.008954837132   -2.397291353956   -4.880115265092
