13

 C    1.432474152537    1.495560910427    0.579931279181
 H    1.466994152537    2.596412910427    0.579931279181
 H    1.957057152537    1.126415910427    1.473550279181
 H    1.957057152537    1.126415910427   -0.313687720819
 C   -0.010305847463    1.018509910427    0.579931279181
 H   -0.549479847463    1.389662910427   -0.314834720819
 H   -0.549479847463    1.389662910427    1.474697279181
 O   -0.009740847463   -0.409997089573    0.579931279181
 C   -1.339327847463   -0.920404089573    0.579931279181
 H   -1.892710847463   -0.589625089573   -0.319201720819
 H   -1.892710847463   -0.589625089573    1.479064279181
 H   -1.266244847463   -2.015879089573    0.579931279181
LI   -0.008942724627   -2.427915777359   -4.964255183456
