13

 C    1.432472737537    1.499138498682    0.589760622896
 H    1.466992737537    2.599990498682    0.589760622896
 H    1.957055737537    1.129993498682    1.483379622896
 H    1.957055737537    1.129993498682   -0.303858377104
 C   -0.010307262463    1.022087498682    0.589760622896
 H   -0.549481262463    1.393240498682   -0.305005377104
 H   -0.549481262463    1.393240498682    1.484526622896
 O   -0.009742262463   -0.406419501318    0.589760622896
 C   -1.339329262463   -0.916826501318    0.589760622896
 H   -1.892712262463   -0.586047501318   -0.309372377104
 H   -1.892712262463   -0.586047501318    1.488893622896
 H   -1.266246262463   -2.012301501318    0.589760622896
LI   -0.008930612121   -2.458540200761   -5.048395101820
