13

 C    1.432471322537    1.502716086936    0.599589966611
 H    1.466991322537    2.603568086936    0.599589966611
 H    1.957054322537    1.133571086936    1.493208966611
 H    1.957054322537    1.133571086936   -0.294029033389
 C   -0.010308677463    1.025665086936    0.599589966611
 H   -0.549482677463    1.396818086936   -0.295176033389
 H   -0.549482677463    1.396818086936    1.494355966611
 O   -0.009743677463   -0.402841913064    0.599589966611
 C   -1.339330677463   -0.913248913064    0.599589966611
 H   -1.892713677463   -0.582469913064   -0.299543033389
 H   -1.892713677463   -0.582469913064    1.498722966611
 H   -1.266247677463   -2.008723913064    0.599589966611
LI   -0.008918499615   -2.489164624164   -5.132535020183
