13

 C    1.432464247537    1.520604028210    0.648736685185
 H    1.466984247537    2.621456028210    0.648736685185
 H    1.957047247537    1.151459028210    1.542355685185
 H    1.957047247537    1.151459028210   -0.244882314815
 C   -0.010315752463    1.043553028210    0.648736685185
 H   -0.549489752463    1.414706028210   -0.246029314815
 H   -0.549489752463    1.414706028210    1.543502685185
 O   -0.009750752463   -0.384953971790    0.648736685185
 C   -1.339337752463   -0.895360971790    0.648736685185
 H   -1.892720752463   -0.564581971790   -0.250396314815
 H   -1.892720752463   -0.564581971790    1.547869685185
 H   -1.266254752463   -1.990835971790    0.648736685185
LI   -0.008857937086   -2.642286741177   -5.553234612002
