13

 C    1.432462832537    1.524181616465    0.658566028900
 H    1.466982832537    2.625033616465    0.658566028900
 H    1.957045832537    1.155036616465    1.552185028900
 H    1.957045832537    1.155036616465   -0.235052971100
 C   -0.010317167463    1.047130616465    0.658566028900
 H   -0.549491167463    1.418283616465   -0.236199971100
 H   -0.549491167463    1.418283616465    1.553332028900
 O   -0.009752167463   -0.381376383535    0.658566028900
 C   -1.339339167463   -0.891783383535    0.658566028900
 H   -1.892722167463   -0.561004383535   -0.240566971100
 H   -1.892722167463   -0.561004383535    1.557699028900
 H   -1.266256167463   -1.987258383535    0.658566028900
LI   -0.008845824581   -2.672911164579   -5.637374530365
