13

 C    1.432460002537    1.531336792975    0.678224716330
 H    1.466980002537    2.632188792975    0.678224716330
 H    1.957043002537    1.162191792975    1.571843716330
 H    1.957043002537    1.162191792975   -0.215394283670
 C   -0.010319997463    1.054285792975    0.678224716330
 H   -0.549493997463    1.425438792975   -0.216541283670
 H   -0.549493997463    1.425438792975    1.572990716330
 O   -0.009754997463   -0.374221207025    0.678224716330
 C   -1.339341997463   -0.884628207025    0.678224716330
 H   -1.892724997463   -0.553849207025   -0.220908283670
 H   -1.892724997463   -0.553849207025    1.577357716330
 H   -1.266258997463   -1.980103207025    0.678224716330
LI   -0.008821599569   -2.734160011385   -5.805654367092
