13

 C    1.432458587537    1.534914381229    0.688054060045
 H    1.466978587537    2.635766381229    0.688054060045
 H    1.957041587537    1.165769381229    1.581673060045
 H    1.957041587537    1.165769381229   -0.205564939955
 C   -0.010321412463    1.057863381229    0.688054060045
 H   -0.549495412463    1.429016381229   -0.206711939955
 H   -0.549495412463    1.429016381229    1.582820060045
 O   -0.009756412463   -0.370643618771    0.688054060045
 C   -1.339343412463   -0.881050618771    0.688054060045
 H   -1.892726412463   -0.550271618771   -0.211078939955
 H   -1.892726412463   -0.550271618771    1.587187060045
 H   -1.266260412463   -1.976525618771    0.688054060045
LI   -0.008809487064   -2.764784434787   -5.889794285456
