13

 C    1.432455757537    1.542069557739    0.707712747475
 H    1.466975757537    2.642921557739    0.707712747475
 H    1.957038757537    1.172924557739    1.601331747475
 H    1.957038757537    1.172924557739   -0.185906252525
 C   -0.010324242463    1.065018557739    0.707712747475
 H   -0.549498242463    1.436171557739   -0.187053252525
 H   -0.549498242463    1.436171557739    1.602478747475
 O   -0.009759242463   -0.363488442261    0.707712747475
 C   -1.339346242463   -0.873895442261    0.707712747475
 H   -1.892729242463   -0.543116442261   -0.191420252525
 H   -1.892729242463   -0.543116442261    1.606845747475
 H   -1.266263242463   -1.969370442261    0.707712747475
LI   -0.008785262052   -2.826033281592   -6.058074122183
