13

 C    1.432452927538    1.549224734249    0.727371434905
 H    1.466972927538    2.650076734249    0.727371434905
 H    1.957035927538    1.180079734249    1.620990434905
 H    1.957035927538    1.180079734249   -0.166247565095
 C   -0.010327072462    1.072173734249    0.727371434905
 H   -0.549501072462    1.443326734249   -0.167394565095
 H   -0.549501072462    1.443326734249    1.622137434905
 O   -0.009762072462   -0.356333265751    0.727371434905
 C   -1.339349072462   -0.866740265751    0.727371434905
 H   -1.892732072462   -0.535961265751   -0.171761565095
 H   -1.892732072462   -0.535961265751    1.626504434905
 H   -1.266266072462   -1.962215265751    0.727371434905
LI   -0.008761037041   -2.887282128398   -6.226353958911
