13

 C    1.432451512538    1.552802322503    0.737200778620
 H    1.466971512538    2.653654322503    0.737200778620
 H    1.957034512538    1.183657322503    1.630819778620
 H    1.957034512538    1.183657322503   -0.156418221380
 C   -0.010328487462    1.075751322503    0.737200778620
 H   -0.549502487462    1.446904322503   -0.157565221380
 H   -0.549502487462    1.446904322503    1.631966778620
 O   -0.009763487462   -0.352755677497    0.737200778620
 C   -1.339350487462   -0.863162677497    0.737200778620
 H   -1.892733487462   -0.532383677497   -0.161932221380
 H   -1.892733487462   -0.532383677497    1.636333778620
 H   -1.266267487462   -1.958637677497    0.737200778620
LI   -0.008748924535   -2.917906551800   -6.310493877274
