13

 C    1.432448682538    1.559957499013    0.756859466050
 H    1.466968682538    2.660809499013    0.756859466050
 H    1.957031682538    1.190812499013    1.650478466050
 H    1.957031682538    1.190812499013   -0.136759533950
 C   -0.010331317462    1.082906499013    0.756859466050
 H   -0.549505317462    1.454059499013   -0.137906533950
 H   -0.549505317462    1.454059499013    1.651625466050
 O   -0.009766317462   -0.345600500987    0.756859466050
 C   -1.339353317462   -0.856007500987    0.756859466050
 H   -1.892736317462   -0.525228500987   -0.142273533950
 H   -1.892736317462   -0.525228500987    1.655992466050
 H   -1.266270317462   -1.951482500987    0.756859466050
LI   -0.008724699523   -2.979155398605   -6.478773714002
