13

 C    1.432445852538    1.567112675522    0.776518153480
 H    1.466965852538    2.667964675522    0.776518153480
 H    1.957028852538    1.197967675522    1.670137153480
 H    1.957028852538    1.197967675522   -0.117100846520
 C   -0.010334147462    1.090061675522    0.776518153480
 H   -0.549508147462    1.461214675522   -0.118247846520
 H   -0.549508147462    1.461214675522    1.671284153480
 O   -0.009769147462   -0.338445324478    0.776518153480
 C   -1.339356147462   -0.848852324478    0.776518153480
 H   -1.892739147462   -0.518073324478   -0.122614846520
 H   -1.892739147462   -0.518073324478    1.675651153480
 H   -1.266273147462   -1.944327324478    0.776518153480
LI   -0.008700474512   -3.040404245411   -6.647053550729
