13

 C    1.432444437538    1.570690263777    0.786347497195
 H    1.466964437538    2.671542263777    0.786347497195
 H    1.957027437538    1.201545263777    1.679966497195
 H    1.957027437538    1.201545263777   -0.107271502805
 C   -0.010335562462    1.093639263777    0.786347497195
 H   -0.549509562462    1.464792263777   -0.108418502805
 H   -0.549509562462    1.464792263777    1.681113497195
 O   -0.009770562462   -0.334867736223    0.786347497195
 C   -1.339357562462   -0.845274736223    0.786347497195
 H   -1.892740562462   -0.514495736223   -0.112785502805
 H   -1.892740562462   -0.514495736223    1.685480497195
 H   -1.266274562462   -1.940749736223    0.786347497195
LI   -0.008688362006   -3.071028668813   -6.731193469093
