13

 C    1.432443022538    1.574267852032    0.796176840909
 H    1.466963022538    2.675119852032    0.796176840909
 H    1.957026022538    1.205122852032    1.689795840909
 H    1.957026022538    1.205122852032   -0.097442159091
 C   -0.010336977462    1.097216852032    0.796176840909
 H   -0.549510977462    1.468369852032   -0.098589159091
 H   -0.549510977462    1.468369852032    1.690942840909
 O   -0.009771977462   -0.331290147968    0.796176840909
 C   -1.339358977462   -0.841697147968    0.796176840909
 H   -1.892741977462   -0.510918147968   -0.102956159091
 H   -1.892741977462   -0.510918147968    1.695309840909
 H   -1.266275977462   -1.937172147968    0.796176840909
LI   -0.008676249501   -3.101653092216   -6.815333387456
