13

 C    1.432441607538    1.577845440287    0.806006184624
 H    1.466961607538    2.678697440287    0.806006184624
 H    1.957024607538    1.208700440287    1.699625184624
 H    1.957024607538    1.208700440287   -0.087612815376
 C   -0.010338392462    1.100794440287    0.806006184624
 H   -0.549512392462    1.471947440287   -0.088759815376
 H   -0.549512392462    1.471947440287    1.700772184624
 O   -0.009773392462   -0.327712559713    0.806006184624
 C   -1.339360392462   -0.838119559713    0.806006184624
 H   -1.892743392462   -0.507340559713   -0.093126815376
 H   -1.892743392462   -0.507340559713    1.705139184624
 H   -1.266277392462   -1.933594559713    0.806006184624
LI   -0.008664136995   -3.132277515619   -6.899473305820
