13

 C    1.432438777538    1.585000616796    0.825664872054
 H    1.466958777538    2.685852616796    0.825664872054
 H    1.957021777538    1.215855616796    1.719283872054
 H    1.957021777538    1.215855616796   -0.067954127946
 C   -0.010341222462    1.107949616796    0.825664872054
 H   -0.549515222462    1.479102616796   -0.069101127946
 H   -0.549515222462    1.479102616796    1.720430872054
 O   -0.009776222462   -0.320557383204    0.825664872054
 C   -1.339363222462   -0.830964383204    0.825664872054
 H   -1.892746222462   -0.500185383204   -0.073468127946
 H   -1.892746222462   -0.500185383204    1.724797872054
 H   -1.266280222462   -1.926439383204    0.825664872054
LI   -0.008639911983   -3.193526362424   -7.067753142547
