13

 C    1.432434532538    1.595733381561    0.855152903199
 H    1.466954532538    2.696585381561    0.855152903199
 H    1.957017532538    1.226588381561    1.748771903199
 H    1.957017532538    1.226588381561   -0.038466096801
 C   -0.010345467462    1.118682381561    0.855152903199
 H   -0.549519467462    1.489835381561   -0.039613096801
 H   -0.549519467462    1.489835381561    1.749918903199
 O   -0.009780467462   -0.309824618439    0.855152903199
 C   -1.339367467462   -0.820231618439    0.855152903199
 H   -1.892750467462   -0.489452618439   -0.043980096801
 H   -1.892750467462   -0.489452618439    1.754285903199
 H   -1.266284467462   -1.915706618439    0.855152903199
LI   -0.008603574466   -3.285399632632   -7.320172897638
