13

 C    1.432430287538    1.606466146325    0.884640934344
 H    1.466950287538    2.707318146325    0.884640934344
 H    1.957013287538    1.237321146325    1.778259934344
 H    1.957013287538    1.237321146325   -0.008978065656
 C   -0.010349712462    1.129415146325    0.884640934344
 H   -0.549523712462    1.500568146325   -0.010125065656
 H   -0.549523712462    1.500568146325    1.779406934344
 O   -0.009784712462   -0.299091853675    0.884640934344
 C   -1.339371712462   -0.809498853675    0.884640934344
 H   -1.892754712462   -0.478719853675   -0.014492065656
 H   -1.892754712462   -0.478719853675    1.783773934344
 H   -1.266288712462   -1.904973853675    0.884640934344
LI   -0.008567236949   -3.377272902839   -7.572592652729
