13

 C    1.432424627538    1.620776499344    0.923958309204
 H    1.466944627538    2.721628499344    0.923958309204
 H    1.957007627538    1.251631499344    1.817577309204
 H    1.957007627538    1.251631499344    0.030339309204
 C   -0.010355372462    1.143725499344    0.923958309204
 H   -0.549529372462    1.514878499344    0.029192309204
 H   -0.549529372462    1.514878499344    1.818724309204
 O   -0.009790372462   -0.284781500656    0.923958309204
 C   -1.339377372462   -0.795188500656    0.923958309204
 H   -1.892760372462   -0.464409500656    0.024825309204
 H   -1.892760372462   -0.464409500656    1.823091309204
 H   -1.266294372462   -1.890663500656    0.923958309204
LI   -0.008518786926   -3.499770596450   -7.909152326184
