13

 C    1.432421797538    1.627931675854    0.943616996633
 H    1.466941797538    2.728783675854    0.943616996633
 H    1.957004797538    1.258786675854    1.837235996633
 H    1.957004797538    1.258786675854    0.049997996633
 C   -0.010358202462    1.150880675854    0.943616996633
 H   -0.549532202462    1.522033675854    0.048850996633
 H   -0.549532202462    1.522033675854    1.838382996633
 O   -0.009793202462   -0.277626324146    0.943616996633
 C   -1.339380202462   -0.788033324146    0.943616996633
 H   -1.892763202462   -0.457254324146    0.044483996633
 H   -1.892763202462   -0.457254324146    1.842749996633
 H   -1.266297202462   -1.883508324146    0.943616996633
LI   -0.008494561915   -3.561019443255   -8.077432162911
