13

 C    1.432417552538    1.638664440618    0.973105027778
 H    1.466937552538    2.739516440618    0.973105027778
 H    1.957000552538    1.269519440618    1.866724027778
 H    1.957000552538    1.269519440618    0.079486027778
 C   -0.010362447462    1.161613440618    0.973105027778
 H   -0.549536447462    1.532766440618    0.078339027778
 H   -0.549536447462    1.532766440618    1.867871027778
 O   -0.009797447462   -0.266893559382    0.973105027778
 C   -1.339384447462   -0.777300559382    0.973105027778
 H   -1.892767447462   -0.446521559382    0.073972027778
 H   -1.892767447462   -0.446521559382    1.872238027778
 H   -1.266301447462   -1.872775559382    0.973105027778
LI   -0.008458224397   -3.652892713463   -8.329851918002
