20

 C    1.055470689540   -2.820034999474    0.000000000000
 C   -0.202479310460   -2.000654999474    0.000000000000
 N   -1.368309310460   -2.623464999474    0.000000000000
 H   -2.239219310460   -2.099924999474    0.000000000000
 H   -1.418989310460   -3.638364999474    0.000000000000
 O   -0.162039310460   -0.709884999474    0.000000000000
 H    1.932080689540   -2.164504999474    0.000000000000
 H    1.082300689540   -3.469524999474    0.888190000000
 H    1.082300689540   -3.469524999474   -0.888190000000
LI    0.146340689540    0.641095000526    1.283200000000
LI    0.146340689540    0.641095000526   -1.283200000000
 O    0.127259465082    0.557516364921    0.000000000000
 C    0.167699047344    1.848273031488    0.000000000000
 N    1.333525133899    2.471088440342    0.000000000000
 H    2.204439856995    1.947553636632    0.000000000000
 H    1.384201555892    3.485994036520    0.000000000000
 C   -1.090256468330    2.667656677277    0.000000000000
 H   -1.966866184470    2.012121432101    0.000000000000
 H   -1.117081397614    3.317137675640   -0.888192140494
 H   -1.117081397614    3.317137675640    0.888192140494
