20

 C    1.035580677650   -2.907172002247    0.000000000000
 C   -0.222369322350   -2.087792002247    0.000000000000
 N   -1.388199322350   -2.710602002247    0.000000000000
 H   -2.259109322350   -2.187062002247    0.000000000000
 H   -1.438879322350   -3.725502002247    0.000000000000
 O   -0.181929322350   -0.797022002247    0.000000000000
 H    1.912190677650   -2.251642002247    0.000000000000
 H    1.062410677650   -3.556662002247    0.888190000000
 H    1.062410677650   -3.556662002247   -0.888190000000
LI    0.126450677650    0.553957997753    1.283200000000
LI    0.126450677650    0.553957997753   -1.283200000000
 O    0.151876957122    0.665364187439    0.000000000000
 C    0.192316539383    1.956120854006    0.000000000000
 N    1.358142625939    2.578936262859    0.000000000000
 H    2.229057349035    2.055401459150    0.000000000000
 H    1.408819047932    3.593841859038    0.000000000000
 C   -1.065638976290    2.775504499795    0.000000000000
 H   -1.942248692430    2.119969254619    0.000000000000
 H   -1.092463905574    3.424985498157   -0.888192140494
 H   -1.092463905574    3.424985498157    0.888192140494
