20

 C    1.005745659816   -3.037877506408    0.000000000000
 C   -0.252204340184   -2.218497506408    0.000000000000
 N   -1.418034340184   -2.841307506408    0.000000000000
 H   -2.288944340184   -2.317767506408    0.000000000000
 H   -1.468714340184   -3.856207506408    0.000000000000
 O   -0.211764340184   -0.927727506408    0.000000000000
 H    1.882355659816   -2.382347506408    0.000000000000
 H    1.032575659816   -3.687367506408    0.888190000000
 H    1.032575659816   -3.687367506408   -0.888190000000
LI    0.096615659816    0.423252493592    1.283200000000
LI    0.096615659816    0.423252493592   -1.283200000000
 O    0.188803195181    0.827135921216    0.000000000000
 C    0.229242777443    2.117892587783    0.000000000000
 N    1.395068863999    2.740707996636    0.000000000000
 H    2.265983587095    2.217173192927    0.000000000000
 H    1.445745285992    3.755613592815    0.000000000000
 C   -1.028712738230    2.937276233572    0.000000000000
 H   -1.905322454370    2.281740988396    0.000000000000
 H   -1.055537667514    3.586757231934   -0.888192140494
 H   -1.055537667514    3.586757231934    0.888192140494
