20

 C    0.995800653871   -3.081446007795    0.000000000000
 C   -0.262149346129   -2.262066007795    0.000000000000
 N   -1.427979346129   -2.884876007795    0.000000000000
 H   -2.298889346129   -2.361336007795    0.000000000000
 H   -1.478659346129   -3.899776007795    0.000000000000
 O   -0.221709346129   -0.971296007795    0.000000000000
 H    1.872410653871   -2.425916007795    0.000000000000
 H    1.022630653871   -3.730936007795    0.888190000000
 H    1.022630653871   -3.730936007795   -0.888190000000
LI    0.086670653871    0.379683992205    1.283200000000
LI    0.086670653871    0.379683992205   -1.283200000000
 O    0.201111941201    0.881059832475    0.000000000000
 C    0.241551523463    2.171816499042    0.000000000000
 N    1.407377610019    2.794631907895    0.000000000000
 H    2.278292333115    2.271097104186    0.000000000000
 H    1.458054032012    3.809537504074    0.000000000000
 C   -1.016403992210    2.991200144831    0.000000000000
 H   -1.893013708350    2.335664899654    0.000000000000
 H   -1.043228921494    3.640681143193   -0.888192140494
 H   -1.043228921494    3.640681143193    0.888192140494
