20

 C    0.190255172339   -6.610494620125    0.000000000000
 C   -1.067694827661   -5.791114620125    0.000000000000
 N   -2.233524827661   -6.413924620125    0.000000000000
 H   -3.104434827661   -5.890384620125    0.000000000000
 H   -2.284204827661   -7.428824620125    0.000000000000
 O   -1.027254827661   -4.500344620125    0.000000000000
 H    1.066865172339   -5.954964620125    0.000000000000
 H    0.217085172339   -7.259984620125    0.888190000000
 H    0.217085172339   -7.259984620125   -0.888190000000
LI   -0.718874827661   -3.149364620125    1.283200000000
LI   -0.718874827661   -3.149364620125   -1.283200000000
 O    1.198120368816    5.248896644450    0.000000000000
 C    1.238559951078    6.539653311017    0.000000000000
 N    2.404386037634    7.162468719871    0.000000000000
 H    3.275300760730    6.638933916162    0.000000000000
 H    2.455062459627    8.177374316049    0.000000000000
 C   -0.019395564595    7.359036956807    0.000000000000
 H   -0.896005280736    6.703501711630    0.000000000000
 H   -0.046220493880    8.008517955169   -0.888192140494
 H   -0.046220493880    8.008517955169    0.888192140494
