20

 C    0.985855647926   -3.125014509181    0.000000000000
 C   -0.272094352074   -2.305634509181    0.000000000000
 N   -1.437924352074   -2.928444509181    0.000000000000
 H   -2.308834352074   -2.404904509181    0.000000000000
 H   -1.488604352074   -3.943344509181    0.000000000000
 O   -0.231654352074   -1.014864509181    0.000000000000
 H    1.862465647926   -2.469484509181    0.000000000000
 H    1.012685647926   -3.774504509181    0.888190000000
 H    1.012685647926   -3.774504509181   -0.888190000000
LI    0.076725647926    0.336115490819    1.283200000000
LI    0.076725647926    0.336115490819   -1.283200000000
 O    0.213420687221    0.934983743734    0.000000000000
 C    0.253860269483    2.225740410300    0.000000000000
 N    1.419686356039    2.848555819154    0.000000000000
 H    2.290601079135    2.325021015445    0.000000000000
 H    1.470362778032    3.863461415333    0.000000000000
 C   -1.004095246190    3.045124056090    0.000000000000
 H   -1.880704962330    2.389588810913    0.000000000000
 H   -1.030920175474    3.694605054452   -0.888192140494
 H   -1.030920175474    3.694605054452    0.888192140494
