20

 C    0.965965636036   -3.212151511955    0.000000000000
 C   -0.291984363964   -2.392771511955    0.000000000000
 N   -1.457814363964   -3.015581511955    0.000000000000
 H   -2.328724363964   -2.492041511955    0.000000000000
 H   -1.508494363964   -4.030481511955    0.000000000000
 O   -0.251544363964   -1.102001511955    0.000000000000
 H    1.842575636036   -2.556621511955    0.000000000000
 H    0.992795636036   -3.861641511955    0.888190000000
 H    0.992795636036   -3.861641511955   -0.888190000000
LI    0.056835636036    0.248978488045    1.283200000000
LI    0.056835636036    0.248978488045   -1.283200000000
 O    0.238038179261    1.042831566252    0.000000000000
 C    0.278477761523    2.333588232818    0.000000000000
 N    1.444303848079    2.956403641672    0.000000000000
 H    2.315218571175    2.432868837963    0.000000000000
 H    1.494980270072    3.971309237850    0.000000000000
 C   -0.979477754150    3.152971878608    0.000000000000
 H   -1.856087470290    2.497436633431    0.000000000000
 H   -1.006302683434    3.802452876970   -0.888192140494
 H   -1.006302683434    3.802452876970    0.888192140494
