20

 C    0.856570570643   -3.691405027210    0.000000000000
 C   -0.401379429357   -2.872025027210    0.000000000000
 N   -1.567209429357   -3.494835027210    0.000000000000
 H   -2.438119429357   -2.971295027210    0.000000000000
 H   -1.617889429357   -4.509735027210    0.000000000000
 O   -0.360939429357   -1.581255027210    0.000000000000
 H    1.733180570643   -3.035875027210    0.000000000000
 H    0.883400570643   -4.340895027210    0.888190000000
 H    0.883400570643   -4.340895027210   -0.888190000000
LI   -0.052559429357   -0.230275027210    1.283200000000
LI   -0.052559429357   -0.230275027210   -1.283200000000
 O    0.373434385481    1.635994590100    0.000000000000
 C    0.413873967742    2.926751256667    0.000000000000
 N    1.579700054298    3.549566665521    0.000000000000
 H    2.450614777394    3.026031861812    0.000000000000
 H    1.630376476291    4.564472261699    0.000000000000
 C   -0.844081547931    3.746134902456    0.000000000000
 H   -1.720691264071    3.090599657280    0.000000000000
 H   -0.870906477215    4.395615900819   -0.888192140494
 H   -0.870906477215    4.395615900819    0.888192140494
