20

 C    0.826735552808   -3.822110531370    0.000000000000
 C   -0.431214447192   -3.002730531370    0.000000000000
 N   -1.597044447192   -3.625540531370    0.000000000000
 H   -2.467954447192   -3.102000531370    0.000000000000
 H   -1.647724447192   -4.640440531370    0.000000000000
 O   -0.390774447192   -1.711960531370    0.000000000000
 H    1.703345552808   -3.166580531370    0.000000000000
 H    0.853565552808   -4.471600531370    0.888190000000
 H    0.853565552808   -4.471600531370   -0.888190000000
LI   -0.082394447192   -0.360980531370    1.283200000000
LI   -0.082394447192   -0.360980531370   -1.283200000000
 O    0.410360623540    1.797766323877    0.000000000000
 C    0.450800205802    3.088522990444    0.000000000000
 N    1.616626292358    3.711338399298    0.000000000000
 H    2.487541015454    3.187803595588    0.000000000000
 H    1.667302714351    4.726243995476    0.000000000000
 C   -0.807155309871    3.907906636233    0.000000000000
 H   -1.683765026011    3.252371391057    0.000000000000
 H   -0.833980239155    4.557387634596   -0.888192140494
 H   -0.833980239155    4.557387634596    0.888192140494
