20

 C    0.767065517139   -4.083521539691    0.000000000000
 C   -0.490884482861   -3.264141539691    0.000000000000
 N   -1.656714482861   -3.886951539691    0.000000000000
 H   -2.527624482861   -3.363411539691    0.000000000000
 H   -1.707394482861   -4.901851539691    0.000000000000
 O   -0.450444482861   -1.973371539691    0.000000000000
 H    1.643675517139   -3.427991539691    0.000000000000
 H    0.793895517139   -4.733011539691    0.888190000000
 H    0.793895517139   -4.733011539691   -0.888190000000
LI   -0.142064482861   -0.622391539691    1.283200000000
LI   -0.142064482861   -0.622391539691   -1.283200000000
 O    0.484213099660    2.121309791431    0.000000000000
 C    0.524652681922    3.412066457998    0.000000000000
 N    1.690478768478    4.034881866851    0.000000000000
 H    2.561393491574    3.511347063142    0.000000000000
 H    1.741155190471    5.049787463030    0.000000000000
 C   -0.733302833752    4.231450103787    0.000000000000
 H   -1.609912549892    3.575914858611    0.000000000000
 H   -0.760127763036    4.880931102149   -0.888192140494
 H   -0.760127763036    4.880931102149    0.888192140494
