20

 C    0.757120511195   -4.127090041078    0.000000000000
 C   -0.500829488805   -3.307710041078    0.000000000000
 N   -1.666659488805   -3.930520041078    0.000000000000
 H   -2.537569488805   -3.406980041078    0.000000000000
 H   -1.717339488805   -4.945420041078    0.000000000000
 O   -0.460389488805   -2.016940041078    0.000000000000
 H    1.633730511195   -3.471560041078    0.000000000000
 H    0.783950511195   -4.776580041078    0.888190000000
 H    0.783950511195   -4.776580041078   -0.888190000000
LI   -0.152009488805   -0.665960041078    1.283200000000
LI   -0.152009488805   -0.665960041078   -1.283200000000
 O    0.496521845680    2.175233702690    0.000000000000
 C    0.536961427942    3.465990369257    0.000000000000
 N    1.702787514498    4.088805778110    0.000000000000
 H    2.573702237593    3.565270974401    0.000000000000
 H    1.753463936490    5.103711374289    0.000000000000
 C   -0.720994087732    4.285374015046    0.000000000000
 H   -1.597603803872    3.629838769869    0.000000000000
 H   -0.747819017016    4.934855013408   -0.888192140494
 H   -0.747819017016    4.934855013408    0.888192140494
