20

 C    0.727285493360   -4.257795545238    0.000000000000
 C   -0.530664506640   -3.438415545238    0.000000000000
 N   -1.696494506640   -4.061225545238    0.000000000000
 H   -2.567404506640   -3.537685545238    0.000000000000
 H   -1.747174506640   -5.076125545238    0.000000000000
 O   -0.490224506640   -2.147645545238    0.000000000000
 H    1.603895493360   -3.602265545238    0.000000000000
 H    0.754115493360   -4.907285545238    0.888190000000
 H    0.754115493360   -4.907285545238   -0.888190000000
LI   -0.181844506640   -0.796665545238    1.283200000000
LI   -0.181844506640   -0.796665545238   -1.283200000000
 O    0.533448083740    2.337005436467    0.000000000000
 C    0.573887666001    3.627762103033    0.000000000000
 N    1.739713752557    4.250577511887    0.000000000000
 H    2.610628475653    3.727042708178    0.000000000000
 H    1.790390174550    5.265483108065    0.000000000000
 C   -0.684067849672    4.447145748823    0.000000000000
 H   -1.560677565812    3.791610503646    0.000000000000
 H   -0.710892778956    5.096626747185   -0.888192140494
 H   -0.710892778956    5.096626747185    0.888192140494
