20

 C    0.717340487415   -4.301364046625    0.000000000000
 C   -0.540609512585   -3.481984046625    0.000000000000
 N   -1.706439512585   -4.104794046625    0.000000000000
 H   -2.577349512585   -3.581254046625    0.000000000000
 H   -1.757119512585   -5.119694046625    0.000000000000
 O   -0.500169512585   -2.191214046625    0.000000000000
 H    1.593950487415   -3.645834046625    0.000000000000
 H    0.744170487415   -4.950854046625    0.888190000000
 H    0.744170487415   -4.950854046625   -0.888190000000
LI   -0.191789512585   -0.840234046625    1.283200000000
LI   -0.191789512585   -0.840234046625   -1.283200000000
 O    0.545756829760    2.390929347726    0.000000000000
 C    0.586196412021    3.681686014292    0.000000000000
 N    1.752022498577    4.304501423146    0.000000000000
 H    2.622937221673    3.780966619437    0.000000000000
 H    1.802698920570    5.319407019324    0.000000000000
 C   -0.671759103652    4.501069660082    0.000000000000
 H   -1.548368819792    3.845534414905    0.000000000000
 H   -0.698584032936    5.150550658444   -0.888192140494
 H   -0.698584032936    5.150550658444    0.888192140494
