20

 C    0.707395481470   -4.344932548012    0.000000000000
 C   -0.550554518530   -3.525552548012    0.000000000000
 N   -1.716384518530   -4.148362548012    0.000000000000
 H   -2.587294518530   -3.624822548012    0.000000000000
 H   -1.767064518530   -5.163262548012    0.000000000000
 O   -0.510114518530   -2.234782548012    0.000000000000
 H    1.584005481470   -3.689402548012    0.000000000000
 H    0.734225481470   -4.994422548012    0.888190000000
 H    0.734225481470   -4.994422548012   -0.888190000000
LI   -0.201734518530   -0.883802548012    1.283200000000
LI   -0.201734518530   -0.883802548012   -1.283200000000
 O    0.558065575780    2.444853258985    0.000000000000
 C    0.598505158041    3.735609925551    0.000000000000
 N    1.764331244597    4.358425334405    0.000000000000
 H    2.635245967693    3.834890530696    0.000000000000
 H    1.815007666590    5.373330930583    0.000000000000
 C   -0.659450357632    4.554993571341    0.000000000000
 H   -1.536060073772    3.899458326164    0.000000000000
 H   -0.686275286916    5.204474569703   -0.888192140494
 H   -0.686275286916    5.204474569703    0.888192140494
