20

 C    0.697450475526   -4.388501049399    0.000000000000
 C   -0.560499524474   -3.569121049399    0.000000000000
 N   -1.726329524474   -4.191931049399    0.000000000000
 H   -2.597239524474   -3.668391049399    0.000000000000
 H   -1.777009524474   -5.206831049399    0.000000000000
 O   -0.520059524474   -2.278351049399    0.000000000000
 H    1.574060475526   -3.732971049399    0.000000000000
 H    0.724280475526   -5.037991049399    0.888190000000
 H    0.724280475526   -5.037991049399   -0.888190000000
LI   -0.211679524474   -0.927371049399    1.283200000000
LI   -0.211679524474   -0.927371049399   -1.283200000000
 O    0.570374321799    2.498777170244    0.000000000000
 C    0.610813904061    3.789533836810    0.000000000000
 N    1.776639990617    4.412349245664    0.000000000000
 H    2.647554713713    3.888814441955    0.000000000000
 H    1.827316412610    5.427254841842    0.000000000000
 C   -0.647141611612    4.608917482600    0.000000000000
 H   -1.523751327752    3.953382237423    0.000000000000
 H   -0.673966540896    5.258398480962   -0.888192140494
 H   -0.673966540896    5.258398480962    0.888192140494
