20

 C    0.657670451746   -4.562775054946    0.000000000000
 C   -0.600279548254   -3.743395054946    0.000000000000
 N   -1.766109548254   -4.366205054946    0.000000000000
 H   -2.637019548254   -3.842665054946    0.000000000000
 H   -1.816789548254   -5.381105054946    0.000000000000
 O   -0.559839548254   -2.452625054946    0.000000000000
 H    1.534280451746   -3.907245054946    0.000000000000
 H    0.684500451746   -5.212265054946    0.888190000000
 H    0.684500451746   -5.212265054946   -0.888190000000
LI   -0.251459548254   -1.101645054946    1.283200000000
LI   -0.251459548254   -1.101645054946   -1.283200000000
 O    0.619609305879    2.714472815279    0.000000000000
 C    0.660048888141    4.005229481846    0.000000000000
 N    1.825874974697    4.628044890700    0.000000000000
 H    2.696789697793    4.104510086991    0.000000000000
 H    1.876551396690    5.642950486878    0.000000000000
 C   -0.597906627532    4.824613127636    0.000000000000
 H   -1.474516343672    4.169077882459    0.000000000000
 H   -0.624731556816    5.474094125998   -0.888192140494
 H   -0.624731556816    5.474094125998    0.888192140494
