20

 C    0.647725445801   -4.606343556333    0.000000000000
 C   -0.610224554199   -3.786963556333    0.000000000000
 N   -1.776054554199   -4.409773556333    0.000000000000
 H   -2.646964554199   -3.886233556333    0.000000000000
 H   -1.826734554199   -5.424673556333    0.000000000000
 O   -0.569784554199   -2.496193556333    0.000000000000
 H    1.524335445801   -3.950813556333    0.000000000000
 H    0.674555445801   -5.255833556333    0.888190000000
 H    0.674555445801   -5.255833556333   -0.888190000000
LI   -0.261404554199   -1.145213556333    1.283200000000
LI   -0.261404554199   -1.145213556333   -1.283200000000
 O    0.631918051899    2.768396726538    0.000000000000
 C    0.672357634161    4.059153393105    0.000000000000
 N    1.838183720717    4.681968801959    0.000000000000
 H    2.709098443813    4.158433998250    0.000000000000
 H    1.888860142710    5.696874398137    0.000000000000
 C   -0.585597881512    4.878537038895    0.000000000000
 H   -1.462207597653    4.223001793718    0.000000000000
 H   -0.612422810797    5.528018037257   -0.888192140494
 H   -0.612422810797    5.528018037257    0.888192140494
