20

 C    0.637780439857   -4.649912057719    0.000000000000
 C   -0.620169560143   -3.830532057719    0.000000000000
 N   -1.785999560143   -4.453342057719    0.000000000000
 H   -2.656909560143   -3.929802057719    0.000000000000
 H   -1.836679560143   -5.468242057719    0.000000000000
 O   -0.579729560143   -2.539762057719    0.000000000000
 H    1.514390439857   -3.994382057719    0.000000000000
 H    0.664610439857   -5.299402057719    0.888190000000
 H    0.664610439857   -5.299402057719   -0.888190000000
LI   -0.271349560143   -1.188782057719    1.283200000000
LI   -0.271349560143   -1.188782057719   -1.283200000000
 O    0.644226797919    2.822320637797    0.000000000000
 C    0.684666380181    4.113077304364    0.000000000000
 N    1.850492466737    4.735892713218    0.000000000000
 H    2.721407189833    4.212357909509    0.000000000000
 H    1.901168888730    5.750798309396    0.000000000000
 C   -0.573289135492    4.932460950154    0.000000000000
 H   -1.449898851633    4.276925704977    0.000000000000
 H   -0.600114064777    5.581941948516   -0.888192140494
 H   -0.600114064777    5.581941948516    0.888192140494
