20

 C    0.627835433912   -4.693480559106    0.000000000000
 C   -0.630114566088   -3.874100559106    0.000000000000
 N   -1.795944566088   -4.496910559106    0.000000000000
 H   -2.666854566088   -3.973370559106    0.000000000000
 H   -1.846624566088   -5.511810559106    0.000000000000
 O   -0.589674566088   -2.583330559106    0.000000000000
 H    1.504445433912   -4.037950559106    0.000000000000
 H    0.654665433912   -5.342970559106    0.888190000000
 H    0.654665433912   -5.342970559106   -0.888190000000
LI   -0.281294566088   -1.232350559106    1.283200000000
LI   -0.281294566088   -1.232350559106   -1.283200000000
 O    0.656535543939    2.876244549056    0.000000000000
 C    0.696975126201    4.167001215623    0.000000000000
 N    1.862801212757    4.789816624477    0.000000000000
 H    2.733715935853    4.266281820768    0.000000000000
 H    1.913477634750    5.804722220655    0.000000000000
 C   -0.560980389473    4.986384861412    0.000000000000
 H   -1.437590105613    4.330849616236    0.000000000000
 H   -0.587805318757    5.635865859775   -0.888192140494
 H   -0.587805318757    5.635865859775    0.888192140494
