20

 C    0.617890427967   -4.737049060493    0.000000000000
 C   -0.640059572033   -3.917669060493    0.000000000000
 N   -1.805889572033   -4.540479060493    0.000000000000
 H   -2.676799572033   -4.016939060493    0.000000000000
 H   -1.856569572033   -5.555379060493    0.000000000000
 O   -0.599619572033   -2.626899060493    0.000000000000
 H    1.494500427967   -4.081519060493    0.000000000000
 H    0.644720427967   -5.386539060493    0.888190000000
 H    0.644720427967   -5.386539060493   -0.888190000000
LI   -0.291239572033   -1.275919060493    1.283200000000
LI   -0.291239572033   -1.275919060493   -1.283200000000
 O    0.668844289959    2.930168460315    0.000000000000
 C    0.709283872221    4.220925126882    0.000000000000
 N    1.875109958777    4.843740535736    0.000000000000
 H    2.746024681873    4.320205732027    0.000000000000
 H    1.925786380770    5.858646131914    0.000000000000
 C   -0.548671643453    5.040308772671    0.000000000000
 H   -1.425281359593    4.384773527495    0.000000000000
 H   -0.575496572737    5.689789771034   -0.888192140494
 H   -0.575496572737    5.689789771034    0.888192140494
