20

 C    0.607945422022   -4.780617561880    0.000000000000
 C   -0.650004577978   -3.961237561880    0.000000000000
 N   -1.815834577978   -4.584047561880    0.000000000000
 H   -2.686744577978   -4.060507561880    0.000000000000
 H   -1.866514577978   -5.598947561880    0.000000000000
 O   -0.609564577978   -2.670467561880    0.000000000000
 H    1.484555422022   -4.125087561880    0.000000000000
 H    0.634775422022   -5.430107561880    0.888190000000
 H    0.634775422022   -5.430107561880   -0.888190000000
LI   -0.301184577978   -1.319487561880    1.283200000000
LI   -0.301184577978   -1.319487561880   -1.283200000000
 O    0.681153035979    2.984092371574    0.000000000000
 C    0.721592618241    4.274849038141    0.000000000000
 N    1.887418704797    4.897664446995    0.000000000000
 H    2.758333427892    4.374129643286    0.000000000000
 H    1.938095126790    5.912570043173    0.000000000000
 C   -0.536362897433    5.094232683930    0.000000000000
 H   -1.412972613573    4.438697438754    0.000000000000
 H   -0.563187826717    5.743713682293   -0.888192140494
 H   -0.563187826717    5.743713682293    0.888192140494
