20

 C    0.568165398243   -4.954891567427    0.000000000000
 C   -0.689784601757   -4.135511567427    0.000000000000
 N   -1.855614601757   -4.758321567427    0.000000000000
 H   -2.726524601757   -4.234781567427    0.000000000000
 H   -1.906294601757   -5.773221567427    0.000000000000
 O   -0.649344601757   -2.844741567427    0.000000000000
 H    1.444775398243   -4.299361567427    0.000000000000
 H    0.594995398243   -5.604381567427    0.888190000000
 H    0.594995398243   -5.604381567427   -0.888190000000
LI   -0.340964601757   -1.493761567427    1.283200000000
LI   -0.340964601757   -1.493761567427   -1.283200000000
 O    0.730388020059    3.199788016610    0.000000000000
 C    0.770827602320    4.490544683177    0.000000000000
 N    1.936653688876    5.113360092030    0.000000000000
 H    2.807568411972    4.589825288321    0.000000000000
 H    1.987330110869    6.128265688209    0.000000000000
 C   -0.487127913353    5.309928328966    0.000000000000
 H   -1.363737629493    4.654393083790    0.000000000000
 H   -0.513952842637    5.959409327329   -0.888192140494
 H   -0.513952842637    5.959409327329    0.888192140494
