20

 C    0.538330380408   -5.085597071587    0.000000000000
 C   -0.719619619592   -4.266217071587    0.000000000000
 N   -1.885449619592   -4.889027071587    0.000000000000
 H   -2.756359619592   -4.365487071587    0.000000000000
 H   -1.936129619592   -5.903927071587    0.000000000000
 O   -0.679179619592   -2.975447071587    0.000000000000
 H    1.414940380408   -4.430067071587    0.000000000000
 H    0.565160380408   -5.735087071587    0.888190000000
 H    0.565160380408   -5.735087071587   -0.888190000000
LI   -0.370799619592   -1.624467071587    1.283200000000
LI   -0.370799619592   -1.624467071587   -1.283200000000
 O    0.767314258118    3.361559750387    0.000000000000
 C    0.807753840380    4.652316416954    0.000000000000
 N    1.973579926936    5.275131825807    0.000000000000
 H    2.844494650032    4.751597022098    0.000000000000
 H    2.024256348929    6.290037421986    0.000000000000
 C   -0.450201675293    5.471700062743    0.000000000000
 H   -1.326811391433    4.816164817567    0.000000000000
 H   -0.477026604577    6.121181061105   -0.888192140494
 H   -0.477026604577    6.121181061105    0.888192140494
