20

 C    0.508495362574   -5.216302575748    0.000000000000
 C   -0.749454637426   -4.396922575748    0.000000000000
 N   -1.915284637426   -5.019732575748    0.000000000000
 H   -2.786194637426   -4.496192575748    0.000000000000
 H   -1.965964637426   -6.034632575748    0.000000000000
 O   -0.709014637426   -3.106152575748    0.000000000000
 H    1.385105362574   -4.560772575748    0.000000000000
 H    0.535325362574   -5.865792575748    0.888190000000
 H    0.535325362574   -5.865792575748   -0.888190000000
LI   -0.400634637426   -1.755172575748    1.283200000000
LI   -0.400634637426   -1.755172575748   -1.283200000000
 O    0.804240496178    3.523331484164    0.000000000000
 C    0.844680078440    4.814088150730    0.000000000000
 N    2.010506164996    5.436903559584    0.000000000000
 H    2.881420888092    4.913368755875    0.000000000000
 H    2.061182586989    6.451809155763    0.000000000000
 C   -0.413275437233    5.633471796520    0.000000000000
 H   -1.289885153373    4.977936551343    0.000000000000
 H   -0.440100366517    6.282952794882   -0.888192140494
 H   -0.440100366517    6.282952794882    0.888192140494
