20

 C    0.498550356629   -5.259871077134    0.000000000000
 C   -0.759399643371   -4.440491077134    0.000000000000
 N   -1.925229643371   -5.063301077134    0.000000000000
 H   -2.796139643371   -4.539761077134    0.000000000000
 H   -1.975909643371   -6.078201077134    0.000000000000
 O   -0.718959643371   -3.149721077134    0.000000000000
 H    1.375160356629   -4.604341077134    0.000000000000
 H    0.525380356629   -5.909361077134    0.888190000000
 H    0.525380356629   -5.909361077134   -0.888190000000
LI   -0.410579643371   -1.798741077134    1.283200000000
LI   -0.410579643371   -1.798741077134   -1.283200000000
 O    0.816549242198    3.577255395423    0.000000000000
 C    0.856988824460    4.868012061989    0.000000000000
 N    2.022814911016    5.490827470843    0.000000000000
 H    2.893729634112    4.967292667134    0.000000000000
 H    2.073491333009    6.505733067021    0.000000000000
 C   -0.400966691213    5.687395707779    0.000000000000
 H   -1.277576407354    5.031860462602    0.000000000000
 H   -0.427791620498    6.336876706141   -0.888192140494
 H   -0.427791620498    6.336876706141    0.888192140494
