20

 C    0.478660344739   -5.347008079908    0.000000000000
 C   -0.779289655261   -4.527628079908    0.000000000000
 N   -1.945119655261   -5.150438079908    0.000000000000
 H   -2.816029655261   -4.626898079908    0.000000000000
 H   -1.995799655261   -6.165338079908    0.000000000000
 O   -0.738849655261   -3.236858079908    0.000000000000
 H    1.355270344739   -4.691478079908    0.000000000000
 H    0.505490344739   -5.996498079908    0.888190000000
 H    0.505490344739   -5.996498079908   -0.888190000000
LI   -0.430469655261   -1.885878079908    1.283200000000
LI   -0.430469655261   -1.885878079908   -1.283200000000
 O    0.841166734238    3.685103217941    0.000000000000
 C    0.881606316500    4.975859884507    0.000000000000
 N    2.047432403056    5.598675293361    0.000000000000
 H    2.918347126152    5.075140489652    0.000000000000
 H    2.098108825049    6.613580889539    0.000000000000
 C   -0.376349199173    5.795243530297    0.000000000000
 H   -1.252958915314    5.139708285120    0.000000000000
 H   -0.403174128458    6.444724528659   -0.888192140494
 H   -0.403174128458    6.444724528659    0.888192140494
