20

 C    0.468715338794   -5.390576581295    0.000000000000
 C   -0.789234661206   -4.571196581295    0.000000000000
 N   -1.955064661206   -5.194006581295    0.000000000000
 H   -2.825974661206   -4.670466581295    0.000000000000
 H   -2.005744661206   -6.208906581295    0.000000000000
 O   -0.748794661206   -3.280426581295    0.000000000000
 H    1.345325338794   -4.735046581295    0.000000000000
 H    0.495545338794   -6.040066581295    0.888190000000
 H    0.495545338794   -6.040066581295   -0.888190000000
LI   -0.440414661206   -1.929446581295    1.283200000000
LI   -0.440414661206   -1.929446581295   -1.283200000000
 O    0.853475480258    3.739027129200    0.000000000000
 C    0.893915062520    5.029783795766    0.000000000000
 N    2.059741149076    5.652599204620    0.000000000000
 H    2.930655872172    5.129064400911    0.000000000000
 H    2.110417571069    6.667504800798    0.000000000000
 C   -0.364040453154    5.849167441556    0.000000000000
 H   -1.240650169294    5.193632196379    0.000000000000
 H   -0.390865382438    6.498648439918   -0.888192140494
 H   -0.390865382438    6.498648439918    0.888192140494
