20

 C    0.458770332849   -5.434145082682    0.000000000000
 C   -0.799179667151   -4.614765082682    0.000000000000
 N   -1.965009667151   -5.237575082682    0.000000000000
 H   -2.835919667151   -4.714035082682    0.000000000000
 H   -2.015689667151   -6.252475082682    0.000000000000
 O   -0.758739667151   -3.323995082682    0.000000000000
 H    1.335380332849   -4.778615082682    0.000000000000
 H    0.485600332849   -6.083635082682    0.888190000000
 H    0.485600332849   -6.083635082682   -0.888190000000
LI   -0.450359667151   -1.973015082682    1.283200000000
LI   -0.450359667151   -1.973015082682   -1.283200000000
 O    0.865784226278    3.792951040459    0.000000000000
 C    0.906223808540    5.083707707025    0.000000000000
 N    2.072049895096    5.706523115879    0.000000000000
 H    2.942964618191    5.182988312170    0.000000000000
 H    2.122726317089    6.721428712057    0.000000000000
 C   -0.351731707134    5.903091352815    0.000000000000
 H   -1.228341423274    5.247556107638    0.000000000000
 H   -0.378556636418    6.552572351177   -0.888192140494
 H   -0.378556636418    6.552572351177    0.888192140494
