20

 C    0.438880320960   -5.521282085455    0.000000000000
 C   -0.819069679040   -4.701902085455    0.000000000000
 N   -1.984899679040   -5.324712085455    0.000000000000
 H   -2.855809679040   -4.801172085455    0.000000000000
 H   -2.035579679040   -6.339612085455    0.000000000000
 O   -0.778629679040   -3.411132085455    0.000000000000
 H    1.315490320960   -4.865752085455    0.000000000000
 H    0.465710320960   -6.170772085455    0.888190000000
 H    0.465710320960   -6.170772085455   -0.888190000000
LI   -0.470249679040   -2.060152085455    1.283200000000
LI   -0.470249679040   -2.060152085455   -1.283200000000
 O    0.890401718318    3.900798862976    0.000000000000
 C    0.930841300579    5.191555529543    0.000000000000
 N    2.096667387135    5.814370938397    0.000000000000
 H    2.967582110231    5.290836134688    0.000000000000
 H    2.147343809128    6.829276534575    0.000000000000
 C   -0.327114215094    6.010939175333    0.000000000000
 H   -1.203723931234    5.355403930156    0.000000000000
 H   -0.353939144378    6.660420173695   -0.888192140494
 H   -0.353939144378    6.660420173695    0.888192140494
