20

 C    0.428935315015   -5.564850586842    0.000000000000
 C   -0.829014684985   -4.745470586842    0.000000000000
 N   -1.994844684985   -5.368280586842    0.000000000000
 H   -2.865754684985   -4.844740586842    0.000000000000
 H   -2.045524684985   -6.383180586842    0.000000000000
 O   -0.788574684985   -3.454700586842    0.000000000000
 H    1.305545315015   -4.909320586842    0.000000000000
 H    0.455765315015   -6.214340586842    0.888190000000
 H    0.455765315015   -6.214340586842   -0.888190000000
LI   -0.480194684985   -2.103720586842    1.283200000000
LI   -0.480194684985   -2.103720586842   -1.283200000000
 O    0.902710464338    3.954722774235    0.000000000000
 C    0.943150046599    5.245479440802    0.000000000000
 N    2.108976133155    5.868294849656    0.000000000000
 H    2.979890856251    5.344760045947    0.000000000000
 H    2.159652555148    6.883200445834    0.000000000000
 C   -0.314805469074    6.064863086592    0.000000000000
 H   -1.191415185214    5.409327841415    0.000000000000
 H   -0.341630398358    6.714344084954   -0.888192140494
 H   -0.341630398358    6.714344084954    0.888192140494
