20

 C    0.389155291236   -5.739124592389    0.000000000000
 C   -0.868794708764   -4.919744592389    0.000000000000
 N   -2.034624708764   -5.542554592389    0.000000000000
 H   -2.905534708764   -5.019014592389    0.000000000000
 H   -2.085304708764   -6.557454592389    0.000000000000
 O   -0.828354708764   -3.628974592389    0.000000000000
 H    1.265765291236   -5.083594592389    0.000000000000
 H    0.415985291236   -6.388614592389    0.888190000000
 H    0.415985291236   -6.388614592389   -0.888190000000
LI   -0.519974708764   -2.277994592389    1.283200000000
LI   -0.519974708764   -2.277994592389   -1.283200000000
 O    0.951945448417    4.170418419271    0.000000000000
 C    0.992385030679    5.461175085838    0.000000000000
 N    2.158211117235    6.083990494692    0.000000000000
 H    3.029125840331    5.560455690983    0.000000000000
 H    2.208887539228    7.098896090870    0.000000000000
 C   -0.265570484994    6.280558731627    0.000000000000
 H   -1.142180201134    5.625023486451    0.000000000000
 H   -0.292395414278    6.930039729990   -0.888192140494
 H   -0.292395414278    6.930039729990    0.888192140494
