20

 C    0.279760225842   -6.218378107644    0.000000000000
 C   -0.978189774158   -5.398998107644    0.000000000000
 N   -2.144019774158   -6.021808107644    0.000000000000
 H   -3.014929774158   -5.498268107644    0.000000000000
 H   -2.194699774158   -7.036708107644    0.000000000000
 O   -0.937749774158   -4.108228107644    0.000000000000
 H    1.156370225842   -5.562848107644    0.000000000000
 H    0.306590225842   -6.867868107644    0.888190000000
 H    0.306590225842   -6.867868107644   -0.888190000000
LI   -0.629369774158   -2.757248107644    1.283200000000
LI   -0.629369774158   -2.757248107644   -1.283200000000
 O    1.087341654637    4.763581443120    0.000000000000
 C    1.127781236898    6.054338109686    0.000000000000
 N    2.293607323454    6.677153518540    0.000000000000
 H    3.164522046550    6.153618714831    0.000000000000
 H    2.344283745447    7.692059114719    0.000000000000
 C   -0.130174278775    6.873721755476    0.000000000000
 H   -1.006783994915    6.218186510299    0.000000000000
 H   -0.156999208059    7.523202753838   -0.888192140494
 H   -0.156999208059    7.523202753838    0.888192140494
