20

 C    0.259870213953   -6.305515110418    0.000000000000
 C   -0.998079786047   -5.486135110418    0.000000000000
 N   -2.163909786047   -6.108945110418    0.000000000000
 H   -3.034819786047   -5.585405110418    0.000000000000
 H   -2.214589786047   -7.123845110418    0.000000000000
 O   -0.957639786047   -4.195365110418    0.000000000000
 H    1.136480213953   -5.649985110418    0.000000000000
 H    0.286700213953   -6.955005110418    0.888190000000
 H    0.286700213953   -6.955005110418   -0.888190000000
LI   -0.649259786047   -2.844385110418    1.283200000000
LI   -0.649259786047   -2.844385110418   -1.283200000000
 O    1.111959146677    4.871429265638    0.000000000000
 C    1.152398728938    6.162185932204    0.000000000000
 N    2.318224815494    6.785001341058    0.000000000000
 H    3.189139538590    6.261466537349    0.000000000000
 H    2.368901237487    7.799906937236    0.000000000000
 C   -0.105556786735    6.981569577994    0.000000000000
 H   -0.982166502875    6.326034332817    0.000000000000
 H   -0.132381716019    7.631050576356   -0.888192140494
 H   -0.132381716019    7.631050576356    0.888192140494
