20

 C    0.230035196118   -6.436220614578    0.000000000000
 C   -1.027914803882   -5.616840614578    0.000000000000
 N   -2.193744803882   -6.239650614578    0.000000000000
 H   -3.064654803882   -5.716110614578    0.000000000000
 H   -2.244424803882   -7.254550614578    0.000000000000
 O   -0.987474803882   -4.326070614578    0.000000000000
 H    1.106645196118   -5.780690614578    0.000000000000
 H    0.256865196118   -7.085710614578    0.888190000000
 H    0.256865196118   -7.085710614578   -0.888190000000
LI   -0.679094803882   -2.975090614578    1.283200000000
LI   -0.679094803882   -2.975090614578   -1.283200000000
 O    1.148885384736    5.033200999415    0.000000000000
 C    1.189324966998    6.323957665981    0.000000000000
 N    2.355151053554    6.946773074835    0.000000000000
 H    3.226065776650    6.423238271126    0.000000000000
 H    2.405827475547    7.961678671013    0.000000000000
 C   -0.068630548675    7.143341311771    0.000000000000
 H   -0.945240264815    6.487806066594    0.000000000000
 H   -0.095455477959    7.792822310133   -0.888192140494
 H   -0.095455477959    7.792822310133    0.888192140494
