7

 C    0.432070926346    1.442010184343    0.000000000000
 O    0.432070926346    0.007124184343    0.000000000000
 H    1.351080926346   -0.289676815657    0.000000000000
 H   -0.621248073654    1.749999184343    0.000000000000
 H    0.920736926346    1.852943184343    0.899440000000
 H    0.920736926346    1.852943184343   -0.899440000000
 K   -0.376946068029   -0.580661067950    0.000000000000
