7

 C    0.565282656249    1.538794171347    0.000000000000
 O    0.565282656249    0.103908171347    0.000000000000
 H    1.484292656249   -0.192892828653    0.000000000000
 H   -0.488036343751    1.846783171347    0.000000000000
 H    1.053948656249    1.949727171347    0.899440000000
 H    1.053948656249    1.949727171347   -0.899440000000
 K   -0.486439436438   -0.660212656633    0.000000000000
