7

 C    0.609686566217    1.571055500348    0.000000000000
 O    0.609686566217    0.136169500348    0.000000000000
 H    1.528696566217   -0.160631499652    0.000000000000
 H   -0.443632433783    1.879044500348    0.000000000000
 H    1.098352566217    1.981988500348    0.899440000000
 H    1.098352566217    1.981988500348   -0.899440000000
 K   -0.522937225908   -0.686729852861    0.000000000000
