7

 C    0.654090476185    1.603316829350    0.000000000000
 O    0.654090476185    0.168430829350    0.000000000000
 H    1.573100476185   -0.128370170650    0.000000000000
 H   -0.399228523815    1.911305829350    0.000000000000
 H    1.142756476185    2.014249829350    0.899440000000
 H    1.142756476185    2.014249829350   -0.899440000000
 K   -0.559435015378   -0.713247049089    0.000000000000
