7

 C    0.698494386153    1.635578158351    0.000000000000
 O    0.698494386153    0.200692158351    0.000000000000
 H    1.617504386153   -0.096108841649    0.000000000000
 H   -0.354824613847    1.943567158351    0.000000000000
 H    1.187160386153    2.046511158351    0.899440000000
 H    1.187160386153    2.046511158351   -0.899440000000
 K   -0.595932804847   -0.739764245317    0.000000000000
