7

 C    0.742898296120    1.667839487352    0.000000000000
 O    0.742898296120    0.232953487352    0.000000000000
 H    1.661908296120   -0.063847512648    0.000000000000
 H   -0.310420703880    1.975828487352    0.000000000000
 H    1.231564296120    2.078772487352    0.899440000000
 H    1.231564296120    2.078772487352   -0.899440000000
 K   -0.632430594317   -0.766281441545    0.000000000000
