7

 C    0.787302206088    1.700100816353    0.000000000000
 O    0.787302206088    0.265214816353    0.000000000000
 H    1.706312206088   -0.031586183647    0.000000000000
 H   -0.266016793912    2.008089816353    0.000000000000
 H    1.275968206088    2.111033816353    0.899440000000
 H    1.275968206088    2.111033816353   -0.899440000000
 K   -0.668928383787   -0.792798637773    0.000000000000
