7

 C    0.831706116056    1.732362145355    0.000000000000
 O    0.831706116056    0.297476145355    0.000000000000
 H    1.750716116056    0.000675145355    0.000000000000
 H   -0.221612883944    2.040351145355    0.000000000000
 H    1.320372116056    2.143295145355    0.899440000000
 H    1.320372116056    2.143295145355   -0.899440000000
 K   -0.705426173256   -0.819315834001    0.000000000000
