7

 C    4.428422823446    4.345529794461    0.000000000000
 O    4.428422823446    2.910643794461    0.000000000000
 H    5.347432823446    2.613842794461    0.000000000000
 H    3.375103823446    4.653518794461    0.000000000000
 H    4.917088823446    4.756462794461    0.899440000000
 H    4.917088823446    4.756462794461   -0.899440000000
 K   -3.661747120304   -2.967208728464    0.000000000000
