7

 C    0.920513935992    1.796884803357    0.000000000000
 O    0.920513935992    0.361998803357    0.000000000000
 H    1.839523935992    0.065197803357    0.000000000000
 H   -0.132805064008    2.104873803357    0.000000000000
 H    1.409179935992    2.207817803357    0.899440000000
 H    1.409179935992    2.207817803357   -0.899440000000
 K   -0.778421752196   -0.872350226457    0.000000000000
