7

 C    1.053725665895    1.893668790361    0.000000000000
 O    1.053725665895    0.458782790361    0.000000000000
 H    1.972735665895    0.161981790361    0.000000000000
 H    0.000406665895    2.201657790361    0.000000000000
 H    1.542391665895    2.304601790361    0.899440000000
 H    1.542391665895    2.304601790361   -0.899440000000
 K   -0.887915120605   -0.951901815141    0.000000000000
