7

 C    1.098129575863    1.925930119363    0.000000000000
 O    1.098129575863    0.491044119363    0.000000000000
 H    2.017139575863    0.194243119363    0.000000000000
 H    0.044810575863    2.233919119363    0.000000000000
 H    1.586795575863    2.336863119363    0.899440000000
 H    1.586795575863    2.336863119363   -0.899440000000
 K   -0.924412910075   -0.978419011369    0.000000000000
