7

 C    1.364553035669    2.119498093370    0.000000000000
 O    1.364553035669    0.684612093370    0.000000000000
 H    2.283563035669    0.387811093370    0.000000000000
 H    0.311234035669    2.427487093370    0.000000000000
 H    1.853219035669    2.530431093370    0.899440000000
 H    1.853219035669    2.530431093370   -0.899440000000
 K   -1.143399646893   -1.137522188736    0.000000000000
