7

 C    1.453360855605    2.184020751373    0.000000000000
 O    1.453360855605    0.749134751373    0.000000000000
 H    2.372370855605    0.452333751373    0.000000000000
 H    0.400041855605    2.492009751373    0.000000000000
 H    1.942026855605    2.594953751373    0.899440000000
 H    1.942026855605    2.594953751373   -0.899440000000
 K   -1.216395225832   -1.190556581192    0.000000000000
