7

 C    1.497764765573    2.216282080374    0.000000000000
 O    1.497764765573    0.781396080374    0.000000000000
 H    2.416774765573    0.484595080374    0.000000000000
 H    0.444445765573    2.524271080374    0.000000000000
 H    1.986430765573    2.627215080374    0.899440000000
 H    1.986430765573    2.627215080374   -0.899440000000
 K   -1.252893015302   -1.217073777420    0.000000000000
