7

 C    1.586572585508    2.280804738377    0.000000000000
 O    1.586572585508    0.845918738377    0.000000000000
 H    2.505582585508    0.549117738377    0.000000000000
 H    0.533253585508    2.588793738377    0.000000000000
 H    2.075238585508    2.691737738377    0.899440000000
 H    2.075238585508    2.691737738377   -0.899440000000
 K   -1.325888594242   -1.270108169876    0.000000000000
