7

 C    1.630976495476    2.313066067378    0.000000000000
 O    1.630976495476    0.878180067378    0.000000000000
 H    2.549986495476    0.581379067378    0.000000000000
 H    0.577657495476    2.621055067378    0.000000000000
 H    2.119642495476    2.723999067378    0.899440000000
 H    2.119642495476    2.723999067378   -0.899440000000
 K   -1.362386383711   -1.296625366104    0.000000000000
