7

 C    1.719784315411    2.377588725381    0.000000000000
 O    1.719784315411    0.942702725381    0.000000000000
 H    2.638794315411    0.645901725381    0.000000000000
 H    0.666465315411    2.685577725381    0.000000000000
 H    2.208450315411    2.788521725381    0.899440000000
 H    2.208450315411    2.788521725381   -0.899440000000
 K   -1.435381962651   -1.349659758560    0.000000000000
