7

 C    1.764188225379    2.409850054382    0.000000000000
 O    1.764188225379    0.974964054382    0.000000000000
 H    2.683198225379    0.678163054382    0.000000000000
 H    0.710869225379    2.717839054382    0.000000000000
 H    2.252854225379    2.820783054382    0.899440000000
 H    2.252854225379    2.820783054382   -0.899440000000
 K   -1.471879752121   -1.376176954788    0.000000000000
