7

 C    1.852996045315    2.474372712385    0.000000000000
 O    1.852996045315    1.039486712385    0.000000000000
 H    2.772006045315    0.742685712385    0.000000000000
 H    0.799677045315    2.782361712385    0.000000000000
 H    2.341662045315    2.885305712385    0.899440000000
 H    2.341662045315    2.885305712385   -0.899440000000
 K   -1.544875331060   -1.429211347244    0.000000000000
