7

 C    1.897399955283    2.506634041386    0.000000000000
 O    1.897399955283    1.071748041386    0.000000000000
 H    2.816409955283    0.774947041386    0.000000000000
 H    0.844080955283    2.814623041386    0.000000000000
 H    2.386065955283    2.917567041386    0.899440000000
 H    2.386065955283    2.917567041386   -0.899440000000
 K   -1.581373120530   -1.455728543471    0.000000000000
