7

 C    1.941803865250    2.538895370387    0.000000000000
 O    1.941803865250    1.104009370387    0.000000000000
 H    2.860813865250    0.807208370387    0.000000000000
 H    0.888484865250    2.846884370387    0.000000000000
 H    2.430469865250    2.949828370387    0.899440000000
 H    2.430469865250    2.949828370387   -0.899440000000
 K   -1.617870909999   -1.482245739699    0.000000000000
