7

 C    2.075015595154    2.635679357391    0.000000000000
 O    2.075015595154    1.200793357391    0.000000000000
 H    2.994025595154    0.903992357391    0.000000000000
 H    1.021696595154    2.943668357391    0.000000000000
 H    2.563681595154    3.046612357391    0.899440000000
 H    2.563681595154    3.046612357391   -0.899440000000
 K   -1.727364278409   -1.561797328383    0.000000000000
