7

 C    2.163823415089    2.700202015394    0.000000000000
 O    2.163823415089    1.265316015394    0.000000000000
 H    3.082833415089    0.968515015394    0.000000000000
 H    1.110504415089    3.008191015394    0.000000000000
 H    2.652489415089    3.111135015394    0.899440000000
 H    2.652489415089    3.111135015394   -0.899440000000
 K   -1.800359857348   -1.614831720839    0.000000000000
