7

 C    3.096305524413    3.377689924422    0.000000000000
 O    3.096305524413    1.942803924422    0.000000000000
 H    4.015315524413    1.646002924422    0.000000000000
 H    2.042986524413    3.685678924422    0.000000000000
 H    3.584971524413    3.788622924422    0.899440000000
 H    3.584971524413    3.788622924422   -0.899440000000
 K   -2.566813436212   -2.171692841626    0.000000000000
