7

 C    3.984383723768    4.022916504448    0.000000000000
 O    3.984383723768    2.588030504448    0.000000000000
 H    4.903393723768    2.291229504448    0.000000000000
 H    2.931064723768    4.330905504448    0.000000000000
 H    4.473049723768    4.433849504448    0.899440000000
 H    4.473049723768    4.433849504448   -0.899440000000
 K   -3.296769225607   -2.702036766185    0.000000000000
