14

 P   -0.025219069730   -0.130390033639   -0.754483871068
 O   -0.612219069730    0.919609966361    0.200516128932
 O   -0.291219069730   -0.082390033639   -2.266483871068
 O    1.637780930270   -0.304390033639   -0.467483871068
 O   -0.340219069730   -1.688390033639   -0.162483871068
 C    2.374780930270    0.860609966361   -0.844483871068
 H    2.043780930270    1.743609966361   -0.268483871068
 H    2.259780930270    1.071609966361   -1.922483871068
 H    3.434780930270    0.658609966361   -0.624483871068
 C   -1.731219069730   -2.011390033639   -0.212483871068
 H   -2.109219069730   -1.984390033639   -1.250483871068
 H   -2.324219069730   -1.312390033639    0.403516128932
 H   -1.841219069730   -3.031390033639    0.187516128932
RB   -0.173364937248    0.461747326174    0.973671257689
