14

 P   -0.131731878947   -0.019263733504   -0.942133749761
 O   -0.718731878947    1.030736266496    0.012866250239
 O   -0.397731878947    0.028736266496   -2.454133749761
 O    1.531268121053   -0.193263733504   -0.655133749761
 O   -0.446731878947   -1.577263733504   -0.350133749761
 C    2.268268121053    0.971736266496   -1.032133749761
 H    1.937268121053    1.854736266496   -0.456133749761
 H    2.153268121053    1.182736266496   -2.110133749761
 H    3.328268121053    0.769736266496   -0.812133749761
 C   -1.837731878947   -1.900263733504   -0.400133749761
 H   -2.215731878947   -1.873263733504   -1.438133749761
 H   -2.430731878947   -1.201263733504    0.215866250239
 H   -1.947731878947   -2.920263733504   -0.000133749761
RB   -0.016565266975    0.298156042197    1.249914456251
