14

 P   -0.202740418425    0.054820466586   -1.067233668890
 O   -0.789740418425    1.104820466586   -0.112233668890
 O   -0.468740418425    0.102820466586   -2.579233668890
 O    1.460259581575   -0.119179533414   -0.780233668890
 O   -0.517740418425   -1.503179533414   -0.475233668890
 C    2.197259581575    1.045820466586   -1.157233668890
 H    1.866259581575    1.928820466586   -0.581233668890
 H    2.082259581575    1.256820466586   -2.235233668890
 H    3.257259581575    0.843820466586   -0.937233668890
 C   -1.908740418425   -1.826179533414   -0.525233668890
 H   -2.286740418425   -1.799179533414   -1.563233668890
 H   -2.501740418425   -1.127179533414    0.090766331110
 H   -2.018740418425   -2.846179533414   -0.125233668890
RB    0.087967846541    0.189095186212    1.434076588625
