14

 P   -0.238244688164    0.091862566630   -1.129783628454
 O   -0.825244688164    1.141862566630   -0.174783628454
 O   -0.504244688164    0.139862566630   -2.641783628454
 O    1.424755311836   -0.082137433370   -0.842783628454
 O   -0.553244688164   -1.466137433370   -0.537783628454
 C    2.161755311836    1.082862566630   -1.219783628454
 H    1.830755311836    1.965862566630   -0.643783628454
 H    2.046755311836    1.293862566630   -2.297783628454
 H    3.221755311836    0.880862566630   -0.999783628454
 C   -1.944244688164   -1.789137433370   -0.587783628454
 H   -2.322244688164   -1.762137433370   -1.625783628454
 H   -2.537244688164   -1.090137433370    0.028216371546
 H   -2.054244688164   -2.809137433370   -0.187783628454
RB    0.140234403298    0.134564758220    1.526157654813
