14

 P   -0.273748957903    0.128904666675   -1.192333588018
 O   -0.860748957903    1.178904666675   -0.237333588018
 O   -0.539748957903    0.176904666675   -2.704333588018
 O    1.389251042097   -0.045095333325   -0.905333588018
 O   -0.588748957903   -1.429095333325   -0.600333588018
 C    2.126251042097    1.119904666675   -1.282333588018
 H    1.795251042097    2.002904666675   -0.706333588018
 H    2.011251042097    1.330904666675   -2.360333588018
 H    3.186251042097    0.917904666675   -1.062333588018
 C   -1.979748957903   -1.752095333325   -0.650333588018
 H   -2.357748957903   -1.725095333325   -1.688333588018
 H   -2.572748957903   -1.053095333325   -0.034333588018
 H   -2.089748957903   -2.772095333325   -0.250333588018
RB    0.192500960056    0.080034330227    1.618238721000
