14

 P   -0.327005362511    0.184467816743   -1.286158527365
 O   -0.914005362511    1.234467816743   -0.331158527365
 O   -0.593005362511    0.232467816743   -2.798158527365
 O    1.335994637489    0.010467816743   -0.999158527365
 O   -0.642005362511   -1.373532183257   -0.694158527365
 C    2.072994637489    1.175467816743   -1.376158527365
 H    1.741994637489    2.058467816743   -0.800158527365
 H    1.957994637489    1.386467816743   -2.454158527365
 H    3.132994637489    0.973467816743   -1.156158527365
 C   -2.033005362511   -1.696532183257   -0.744158527365
 H   -2.411005362511   -1.669532183257   -1.782158527365
 H   -2.626005362511   -0.997532183257   -0.128158527365
 H   -2.143005362511   -2.716532183257   -0.344158527365
RB    0.270900795193   -0.001761311761    1.756360320281
