14

 P   -0.398013901989    0.258552016833   -1.411258446493
 O   -0.985013901989    1.308552016833   -0.456258446493
 O   -0.664013901989    0.306552016833   -2.923258446493
 O    1.264986098011    0.084552016833   -1.124258446493
 O   -0.713013901989   -1.299447983167   -0.819258446493
 C    2.001986098011    1.249552016833   -1.501258446493
 H    1.670986098011    2.132552016833   -0.925258446493
 H    1.886986098011    1.460552016833   -2.579258446493
 H    3.061986098011    1.047552016833   -1.281258446493
 C   -2.104013901989   -1.622447983167   -0.869258446493
 H   -2.482013901989   -1.595447983167   -1.907258446493
 H   -2.697013901989   -0.923447983167   -0.253258446493
 H   -2.214013901989   -2.642447983167   -0.469258446493
RB    0.375433908708   -0.110822167746    1.940522452655
