14

 P   -0.486774576336    0.351157266945   -1.567633345404
 O   -1.073774576336    1.401157266945   -0.612633345404
 O   -0.752774576336    0.399157266945   -3.079633345404
 O    1.176225423664    0.177157266945   -1.280633345404
 O   -0.801774576336   -1.206842733055   -0.975633345404
 C    1.913225423664    1.342157266945   -1.657633345404
 H    1.582225423664    2.225157266945   -1.081633345404
 H    1.798225423664    1.553157266945   -2.735633345404
 H    2.973225423664    1.140157266945   -1.437633345404
 C   -2.192774576336   -1.529842733055   -1.025633345404
 H   -2.570774576336   -1.502842733055   -2.063633345404
 H   -2.785774576336   -0.830842733055   -0.409633345404
 H   -2.302774576336   -2.549842733055   -0.625633345404
RB    0.506100300602   -0.247148237727    2.170725118123
