14

 P   -0.504526711205    0.369678316967   -1.598908325186
 O   -1.091526711205    1.419678316967   -0.643908325186
 O   -0.770526711205    0.417678316967   -3.110908325186
 O    1.158473288795    0.195678316967   -1.311908325186
 O   -0.819526711205   -1.188321683033   -1.006908325186
 C    1.895473288795    1.360678316967   -1.688908325186
 H    1.564473288795    2.243678316967   -1.112908325186
 H    1.780473288795    1.571678316967   -2.766908325186
 H    2.955473288795    1.158678316967   -1.468908325186
 C   -2.210526711205   -1.511321683033   -1.056908325186
 H   -2.588526711205   -1.484321683033   -2.094908325186
 H   -2.803526711205   -0.812321683033   -0.440908325186
 H   -2.320526711205   -2.531321683033   -0.656908325186
RB    0.532233578981   -0.274413451724    2.216765651217
