14

 P   -0.540030980944    0.406720417012   -1.661458284750
 O   -1.127030980944    1.456720417012   -0.706458284750
 O   -0.806030980944    0.454720417012   -3.173458284750
 O    1.122969019056    0.232720417012   -1.374458284750
 O   -0.855030980944   -1.151279582988   -1.069458284750
 C    1.859969019056    1.397720417012   -1.751458284750
 H    1.528969019056    2.280720417012   -1.175458284750
 H    1.744969019056    1.608720417012   -2.829458284750
 H    2.919969019056    1.195720417012   -1.531458284750
 C   -2.246030980944   -1.474279582988   -1.119458284750
 H   -2.624030980944   -1.447279582988   -2.157458284750
 H   -2.839030980944   -0.775279582988   -0.503458284750
 H   -2.356030980944   -2.494279582988   -0.719458284750
RB    0.584500135739   -0.328943879716    2.308846717404
