14

 P   -0.557783115814    0.425241467035   -1.692733264532
 O   -1.144783115814    1.475241467035   -0.737733264532
 O   -0.823783115814    0.473241467035   -3.204733264532
 O    1.105216884186    0.251241467035   -1.405733264532
 O   -0.872783115814   -1.132758532965   -1.100733264532
 C    1.842216884186    1.416241467035   -1.782733264532
 H    1.511216884186    2.299241467035   -1.206733264532
 H    1.727216884186    1.627241467035   -2.860733264532
 H    2.902216884186    1.214241467035   -1.562733264532
 C   -2.263783115814   -1.455758532965   -1.150733264532
 H   -2.641783115814   -1.428758532965   -2.188733264532
 H   -2.856783115814   -0.756758532965   -0.534733264532
 H   -2.373783115814   -2.475758532965   -0.750733264532
RB    0.610633414117   -0.356209093712    2.354887250498
