14

 P   -0.575535250683    0.443762517057   -1.724008244315
 O   -1.162535250683    1.493762517057   -0.769008244315
 O   -0.841535250683    0.491762517057   -3.236008244315
 O    1.087464749317    0.269762517057   -1.437008244315
 O   -0.890535250683   -1.114237482943   -1.132008244315
 C    1.824464749317    1.434762517057   -1.814008244315
 H    1.493464749317    2.317762517057   -1.238008244315
 H    1.709464749317    1.645762517057   -2.892008244315
 H    2.884464749317    1.232762517057   -1.594008244315
 C   -2.281535250683   -1.437237482943   -1.182008244315
 H   -2.659535250683   -1.410237482943   -2.220008244315
 H   -2.874535250683   -0.738237482943   -0.566008244315
 H   -2.391535250683   -2.457237482943   -0.782008244315
RB    0.636766692496   -0.383474307709    2.400927783591
