14

 P   -0.593287385552    0.462283567080   -1.755283224097
 O   -1.180287385552    1.512283567080   -0.800283224097
 O   -0.859287385552    0.510283567080   -3.267283224097
 O    1.069712614448    0.288283567080   -1.468283224097
 O   -0.908287385552   -1.095716432920   -1.163283224097
 C    1.806712614448    1.453283567080   -1.845283224097
 H    1.475712614448    2.336283567080   -1.269283224097
 H    1.691712614448    1.664283567080   -2.923283224097
 H    2.866712614448    1.251283567080   -1.625283224097
 C   -2.299287385552   -1.418716432920   -1.213283224097
 H   -2.677287385552   -1.391716432920   -2.251283224097
 H   -2.892287385552   -0.719716432920   -0.597283224097
 H   -2.409287385552   -2.438716432920   -0.813283224097
RB    0.662899970875   -0.410739521705    2.446968316685
