14

 P   -0.611039520422    0.480804617102   -1.786558203879
 O   -1.198039520422    1.530804617102   -0.831558203879
 O   -0.877039520422    0.528804617102   -3.298558203879
 O    1.051960479578    0.306804617102   -1.499558203879
 O   -0.926039520422   -1.077195382898   -1.194558203879
 C    1.788960479578    1.471804617102   -1.876558203879
 H    1.457960479578    2.354804617102   -1.300558203879
 H    1.673960479578    1.682804617102   -2.954558203879
 H    2.848960479578    1.269804617102   -1.656558203879
 C   -2.317039520422   -1.400195382898   -1.244558203879
 H   -2.695039520422   -1.373195382898   -2.282558203879
 H   -2.910039520422   -0.701195382898   -0.628558203879
 H   -2.427039520422   -2.420195382898   -0.844558203879
RB    0.689033249254   -0.438004735701    2.493008849779
