14

 P   -0.646543790161    0.517846717147   -1.849108163443
 O   -1.233543790161    1.567846717147   -0.894108163443
 O   -0.912543790161    0.565846717147   -3.361108163443
 O    1.016456209839    0.343846717147   -1.562108163443
 O   -0.961543790161   -1.040153282853   -1.257108163443
 C    1.753456209839    1.508846717147   -1.939108163443
 H    1.422456209839    2.391846717147   -1.363108163443
 H    1.638456209839    1.719846717147   -3.017108163443
 H    2.813456209839    1.306846717147   -1.719108163443
 C   -2.352543790161   -1.363153282853   -1.307108163443
 H   -2.730543790161   -1.336153282853   -2.345108163443
 H   -2.945543790161   -0.664153282853   -0.691108163443
 H   -2.462543790161   -2.383153282853   -0.907108163443
RB    0.741299806012   -0.492535163693    2.585089915966
