14

 P   -0.717552329639    0.591930917237   -1.974208082572
 O   -1.304552329639    1.641930917237   -1.019208082572
 O   -0.983552329639    0.639930917237   -3.486208082572
 O    0.945447670361    0.417930917237   -1.687208082572
 O   -1.032552329639   -0.966069082763   -1.382208082572
 C    1.682447670361    1.582930917237   -2.064208082572
 H    1.351447670361    2.465930917237   -1.488208082572
 H    1.567447670361    1.793930917237   -3.142208082572
 H    2.742447670361    1.380930917237   -1.844208082572
 C   -2.423552329639   -1.289069082763   -1.432208082572
 H   -2.801552329639   -1.262069082763   -2.470208082572
 H   -3.016552329639   -0.590069082763   -0.816208082572
 H   -2.533552329639   -2.309069082763   -1.032208082572
RB    0.845832919527   -0.601596019678    2.769252048340
