14

 P   -0.788560869116    0.666015117326   -2.099308001700
 O   -1.375560869116    1.716015117326   -1.144308001700
 O   -1.054560869116    0.714015117326   -3.611308001700
 O    0.874439130884    0.492015117326   -1.812308001700
 O   -1.103560869116   -0.891984882674   -1.507308001700
 C    1.611439130884    1.657015117326   -2.189308001700
 H    1.280439130884    2.540015117326   -1.613308001700
 H    1.496439130884    1.868015117326   -3.267308001700
 H    2.671439130884    1.455015117326   -1.969308001700
 C   -2.494560869116   -1.214984882674   -1.557308001700
 H   -2.872560869116   -1.187984882674   -2.595308001700
 H   -3.087560869116   -0.515984882674   -0.941308001700
 H   -2.604560869116   -2.234984882674   -1.157308001700
RB    0.950366033042   -0.710656875663    2.953414180715
