14

 P   -0.806313003986    0.684536167349   -2.130582981482
 O   -1.393313003986    1.734536167349   -1.175582981482
 O   -1.072313003986    0.732536167349   -3.642582981482
 O    0.856686996014    0.510536167349   -1.843582981482
 O   -1.121313003986   -0.873463832651   -1.538582981482
 C    1.593686996014    1.675536167349   -2.220582981482
 H    1.262686996014    2.558536167349   -1.644582981482
 H    1.478686996014    1.886536167349   -3.298582981482
 H    2.653686996014    1.473536167349   -2.000582981482
 C   -2.512313003986   -1.196463832651   -1.588582981482
 H   -2.890313003986   -1.169463832651   -2.626582981482
 H   -3.105313003986   -0.497463832651   -0.972582981482
 H   -2.622313003986   -2.216463832651   -1.188582981482
RB    0.976499311421   -0.737922089659    2.999454713808
