14

 P   -0.859569408594    0.740099317416   -2.224407920829
 O   -1.446569408594    1.790099317416   -1.269407920829
 O   -1.125569408594    0.788099317416   -3.736407920829
 O    0.803430591406    0.566099317416   -1.937407920829
 O   -1.174569408594   -0.817900682584   -1.632407920829
 C    1.540430591406    1.731099317416   -2.314407920829
 H    1.209430591406    2.614099317416   -1.738407920829
 H    1.425430591406    1.942099317416   -3.392407920829
 H    2.600430591406    1.529099317416   -2.094407920829
 C   -2.565569408594   -1.140900682584   -1.682407920829
 H   -2.943569408594   -1.113900682584   -2.720407920829
 H   -3.158569408594   -0.441900682584   -1.066407920829
 H   -2.675569408594   -2.160900682584   -1.282407920829
RB    1.054899146558   -0.819717731648    3.137576313089
