14

 P   -0.912825813202    0.795662467484   -2.318232860175
 O   -1.499825813202    1.845662467484   -1.363232860175
 O   -1.178825813202    0.843662467484   -3.830232860175
 O    0.750174186798    0.621662467484   -2.031232860175
 O   -1.227825813202   -0.762337532516   -1.726232860175
 C    1.487174186798    1.786662467484   -2.408232860175
 H    1.156174186798    2.669662467484   -1.832232860175
 H    1.372174186798    1.997662467484   -3.486232860175
 H    2.547174186798    1.584662467484   -2.188232860175
 C   -2.618825813202   -1.085337532516   -1.776232860175
 H   -2.996825813202   -1.058337532516   -2.814232860175
 H   -3.211825813202   -0.386337532516   -1.160232860175
 H   -2.728825813202   -2.105337532516   -1.376232860175
RB    1.133298981694   -0.901513373637    3.275697912370
