14

 P   -1.037090757289    0.925309817641   -2.537157718650
 O   -1.624090757289    1.975309817641   -1.582157718650
 O   -1.303090757289    0.973309817641   -4.049157718650
 O    0.625909242711    0.751309817641   -2.250157718650
 O   -1.352090757289   -0.632690182359   -1.945157718650
 C    1.362909242711    1.916309817641   -2.627157718650
 H    1.031909242711    2.799309817641   -2.051157718650
 H    1.247909242711    2.127309817641   -3.705157718650
 H    2.422909242711    1.714309817641   -2.407157718650
 C   -2.743090757289   -0.955690182359   -1.995157718650
 H   -3.121090757289   -0.928690182359   -3.033157718650
 H   -3.336090757289   -0.256690182359   -1.379157718650
 H   -2.853090757289   -1.975690182359   -1.595157718650
RB    1.316231930346   -1.092369871610    3.597981644025
