14

 P   -1.054842892158    0.943830867663   -2.568432698432
 O   -1.641842892158    1.993830867663   -1.613432698432
 O   -1.320842892158    0.991830867663   -4.080432698432
 O    0.608157107842    0.769830867663   -2.281432698432
 O   -1.369842892158   -0.614169132337   -1.976432698432
 C    1.345157107842    1.934830867663   -2.658432698432
 H    1.014157107842    2.817830867663   -2.082432698432
 H    1.230157107842    2.145830867663   -3.736432698432
 H    2.405157107842    1.732830867663   -2.438432698432
 C   -2.760842892158   -0.937169132337   -2.026432698432
 H   -3.138842892158   -0.910169132337   -3.064432698432
 H   -3.353842892158   -0.238169132337   -1.410432698432
 H   -2.870842892158   -1.957169132337   -1.626432698432
RB    1.342365208725   -1.119635085606    3.644022177119
