14

 P   -1.072595027027    0.962351917686   -2.599707678214
 O   -1.659595027027    2.012351917686   -1.644707678214
 O   -1.338595027027    1.010351917686   -4.111707678214
 O    0.590404972973    0.788351917686   -2.312707678214
 O   -1.387595027027   -0.595648082314   -2.007707678214
 C    1.327404972973    1.953351917686   -2.689707678214
 H    0.996404972973    2.836351917686   -2.113707678214
 H    1.212404972973    2.164351917686   -3.767707678214
 H    2.387404972973    1.751351917686   -2.469707678214
 C   -2.778595027027   -0.918648082314   -2.057707678214
 H   -3.156595027027   -0.891648082314   -3.095707678214
 H   -3.371595027027   -0.219648082314   -1.441707678214
 H   -2.888595027027   -1.938648082314   -1.657707678214
RB    1.368498487104   -1.146900299603    3.690062710213
