14

 P   -1.108099296766    0.999394017731   -2.662257637779
 O   -1.695099296766    2.049394017731   -1.707257637779
 O   -1.374099296766    1.047394017731   -4.174257637779
 O    0.554900703234    0.825394017731   -2.375257637779
 O   -1.423099296766   -0.558605982269   -2.070257637779
 C    1.291900703234    1.990394017731   -2.752257637779
 H    0.960900703234    2.873394017731   -2.176257637779
 H    1.176900703234    2.201394017731   -3.830257637779
 H    2.351900703234    1.788394017731   -2.532257637779
 C   -2.814099296766   -0.881605982269   -2.120257637779
 H   -3.192099296766   -0.854605982269   -3.158257637779
 H   -3.407099296766   -0.182605982269   -1.504257637779
 H   -2.924099296766   -1.901605982269   -1.720257637779
RB    1.420765043861   -1.201430727595    3.782143776400
