14

 P   -1.125851431636    1.017915067753   -2.693532617561
 O   -1.712851431636    2.067915067753   -1.738532617561
 O   -1.391851431636    1.065915067753   -4.205532617561
 O    0.537148568364    0.843915067753   -2.406532617561
 O   -1.440851431636   -0.540084932247   -2.101532617561
 C    1.274148568364    2.008915067753   -2.783532617561
 H    0.943148568364    2.891915067753   -2.207532617561
 H    1.159148568364    2.219915067753   -3.861532617561
 H    2.334148568364    1.806915067753   -2.563532617561
 C   -2.831851431636   -0.863084932247   -2.151532617561
 H   -3.209851431636   -0.836084932247   -3.189532617561
 H   -3.424851431636   -0.164084932247   -1.535532617561
 H   -2.941851431636   -1.883084932247   -1.751532617561
RB    1.446898322240   -1.228695941591    3.828184309493
