14

 P   -1.161355701375    1.054957167798   -2.756082577125
 O   -1.748355701375    2.104957167798   -1.801082577125
 O   -1.427355701375    1.102957167798   -4.268082577125
 O    0.501644298625    0.880957167798   -2.469082577125
 O   -1.476355701375   -0.503042832202   -2.164082577125
 C    1.238644298625    2.045957167798   -2.846082577125
 H    0.907644298625    2.928957167798   -2.270082577125
 H    1.123644298625    2.256957167798   -3.924082577125
 H    2.298644298625    1.843957167798   -2.626082577125
 C   -2.867355701375   -0.826042832202   -2.214082577125
 H   -3.245355701375   -0.799042832202   -3.252082577125
 H   -3.460355701375   -0.127042832202   -1.598082577125
 H   -2.977355701375   -1.846042832202   -1.814082577125
RB    1.499164878998   -1.283226369584    3.920265375681
