14

 P   -1.179107836244    1.073478217820   -2.787357556907
 O   -1.766107836244    2.123478217820   -1.832357556907
 O   -1.445107836244    1.121478217820   -4.299357556907
 O    0.483892163756    0.899478217820   -2.500357556907
 O   -1.494107836244   -0.484521782180   -2.195357556907
 C    1.220892163756    2.064478217820   -2.877357556907
 H    0.889892163756    2.947478217820   -2.301357556907
 H    1.105892163756    2.275478217820   -3.955357556907
 H    2.280892163756    1.862478217820   -2.657357556907
 C   -2.885107836244   -0.807521782180   -2.245357556907
 H   -3.263107836244   -0.780521782180   -3.283357556907
 H   -3.478107836244   -0.108521782180   -1.629357556907
 H   -2.995107836244   -1.827521782180   -1.845357556907
RB    1.525298157377   -1.310491583580    3.966305908774
