14

 P   -1.196859971113    1.091999267843   -2.818632536689
 O   -1.783859971113    2.141999267843   -1.863632536689
 O   -1.462859971113    1.139999267843   -4.330632536689
 O    0.466140028887    0.917999267843   -2.531632536689
 O   -1.511859971113   -0.466000732157   -2.226632536689
 C    1.203140028887    2.082999267843   -2.908632536689
 H    0.872140028887    2.965999267843   -2.332632536689
 H    1.088140028887    2.293999267843   -3.986632536689
 H    2.263140028887    1.880999267843   -2.688632536689
 C   -2.902859971113   -0.789000732157   -2.276632536689
 H   -3.280859971113   -0.762000732157   -3.314632536689
 H   -3.495859971113   -0.090000732157   -1.660632536689
 H   -3.012859971113   -1.809000732157   -1.876632536689
RB    1.551431435755   -1.337756797576    4.012346441868
