14

 P   -1.232364240852    1.129041367888   -2.881182496254
 O   -1.819364240852    2.179041367888   -1.926182496254
 O   -1.498364240852    1.177041367888   -4.393182496254
 O    0.430635759148    0.955041367888   -2.594182496254
 O   -1.547364240852   -0.428958632112   -2.289182496254
 C    1.167635759148    2.120041367888   -2.971182496254
 H    0.836635759148    3.003041367888   -2.395182496254
 H    1.052635759148    2.331041367888   -4.049182496254
 H    2.227635759148    1.918041367888   -2.751182496254
 C   -2.938364240852   -0.751958632112   -2.339182496254
 H   -3.316364240852   -0.724958632112   -3.377182496254
 H   -3.531364240852   -0.052958632112   -1.723182496254
 H   -3.048364240852   -1.771958632112   -1.939182496254
RB    1.603697992513   -1.392287225569    4.104427508055
