14

 P   -1.392133454677    1.295730818090   -3.162657314293
 O   -1.979133454677    2.345730818090   -2.207657314293
 O   -1.658133454677    1.343730818090   -4.674657314293
 O    0.270866545323    1.121730818090   -2.875657314293
 O   -1.707133454677   -0.262269181910   -2.570657314293
 C    1.007866545323    2.286730818090   -3.252657314293
 H    0.676866545323    3.169730818090   -2.676657314293
 H    0.892866545323    2.497730818090   -4.330657314293
 H    2.067866545323    2.084730818090   -3.032657314293
 C   -3.098133454677   -0.585269181910   -2.620657314293
 H   -3.476133454677   -0.558269181910   -3.658657314293
 H   -3.691133454677    0.113730818090   -2.004657314293
 H   -3.208133454677   -1.605269181910   -2.220657314293
RB    1.838897497923   -1.637674151535    4.518792305898
