14

 P   -1.409885589547    1.314251868112   -3.193932294075
 O   -1.996885589547    2.364251868112   -2.238932294075
 O   -1.675885589547    1.362251868112   -4.705932294075
 O    0.253114410453    1.140251868112   -2.906932294075
 O   -1.724885589547   -0.243748131888   -2.601932294075
 C    0.990114410453    2.305251868112   -3.283932294075
 H    0.659114410453    3.188251868112   -2.707932294075
 H    0.875114410453    2.516251868112   -4.361932294075
 H    2.050114410453    2.103251868112   -3.063932294075
 C   -3.115885589547   -0.566748131888   -2.651932294075
 H   -3.493885589547   -0.539748131888   -3.689932294075
 H   -3.708885589547    0.132251868112   -2.035932294075
 H   -3.225885589547   -1.586748131888   -2.251932294075
RB    1.865030776301   -1.664939365531    4.564832838991
