14

 P   -1.427637724416    1.332772918135   -3.225207273857
 O   -2.014637724416    2.382772918135   -2.270207273857
 O   -1.693637724416    1.380772918135   -4.737207273857
 O    0.235362275584    1.158772918135   -2.938207273857
 O   -1.742637724416   -0.225227081865   -2.633207273857
 C    0.972362275584    2.323772918135   -3.315207273857
 H    0.641362275584    3.206772918135   -2.739207273857
 H    0.857362275584    2.534772918135   -4.393207273857
 H    2.032362275584    2.121772918135   -3.095207273857
 C   -3.133637724416   -0.548227081865   -2.683207273857
 H   -3.511637724416   -0.521227081865   -3.721207273857
 H   -3.726637724416    0.150772918135   -2.067207273857
 H   -3.243637724416   -1.568227081865   -2.283207273857
RB    1.891164054680   -1.692204579527    4.610873372085
