14

 P   -1.463141994155    1.369815018180   -3.287757233421
 O   -2.050141994155    2.419815018180   -2.332757233421
 O   -1.729141994155    1.417815018180   -4.799757233421
 O    0.199858005845    1.195815018180   -3.000757233421
 O   -1.778141994155   -0.188184981820   -2.695757233421
 C    0.936858005845    2.360815018180   -3.377757233421
 H    0.605858005845    3.243815018180   -2.801757233421
 H    0.821858005845    2.571815018180   -4.455757233421
 H    1.996858005845    2.158815018180   -3.157757233421
 C   -3.169141994155   -0.511184981820   -2.745757233421
 H   -3.547141994155   -0.484184981820   -3.783757233421
 H   -3.762141994155    0.187815018180   -2.129757233421
 H   -3.279141994155   -1.531184981820   -2.345757233421
RB    1.943430611438   -1.746735007519    4.702954438272
