14

 P   -1.534150533633    1.443899218270   -3.412857152550
 O   -2.121150533633    2.493899218270   -2.457857152550
 O   -1.800150533633    1.491899218270   -4.924857152550
 O    0.128849466367    1.269899218270   -3.125857152550
 O   -1.849150533633   -0.114100781730   -2.820857152550
 C    0.865849466367    2.434899218270   -3.502857152550
 H    0.534849466367    3.317899218270   -2.926857152550
 H    0.750849466367    2.645899218270   -4.580857152550
 H    1.925849466367    2.232899218270   -3.282857152550
 C   -3.240150533633   -0.437100781730   -2.870857152550
 H   -3.618150533633   -0.410100781730   -3.908857152550
 H   -3.833150533633    0.261899218270   -2.254857152550
 H   -3.350150533633   -1.457100781730   -2.470857152550
RB    2.047963724953   -1.855795863504    4.887116570647
