14

 P   -1.587406938241    1.499462368337   -3.506682091896
 O   -2.174406938241    2.549462368337   -2.551682091896
 O   -1.853406938241    1.547462368337   -5.018682091896
 O    0.075593061759    1.325462368337   -3.219682091896
 O   -1.902406938241   -0.058537631663   -2.914682091896
 C    0.812593061759    2.490462368337   -3.596682091896
 H    0.481593061759    3.373462368337   -3.020682091896
 H    0.697593061759    2.701462368337   -4.674682091896
 H    1.872593061759    2.288462368337   -3.376682091896
 C   -3.293406938241   -0.381537631663   -2.964682091896
 H   -3.671406938241   -0.354537631663   -4.002682091896
 H   -3.886406938241    0.317462368337   -2.348682091896
 H   -3.403406938241   -1.401537631663   -2.564682091896
RB    2.126363560090   -1.937591505493    5.025238169927
