14

 P   -1.605159073111    1.517983418359   -3.537957071678
 O   -2.192159073111    2.567983418359   -2.582957071678
 O   -1.871159073111    1.565983418359   -5.049957071678
 O    0.057840926889    1.343983418359   -3.250957071678
 O   -1.920159073111   -0.040016581641   -2.945957071678
 C    0.794840926889    2.508983418359   -3.627957071678
 H    0.463840926889    3.391983418359   -3.051957071678
 H    0.679840926889    2.719983418359   -4.705957071678
 H    1.854840926889    2.306983418359   -3.407957071678
 C   -3.311159073111   -0.363016581641   -2.995957071678
 H   -3.689159073111   -0.336016581641   -4.033957071678
 H   -3.904159073111    0.335983418359   -2.379957071678
 H   -3.421159073111   -1.383016581641   -2.595957071678
RB    2.152496838469   -1.964856719489    5.071278703021
