17

 C   -0.950966032952   -4.038460590437    0.000000000000
 H   -1.871086032952   -3.447050590437    0.000000000000
 H   -0.910276032952   -4.687250590437    0.885960000000
 H   -0.910276032952   -4.687250590437   -0.885960000000
 C    0.236193967048   -3.128340590437    0.000000000000
 O    0.190343967048   -1.895540590437    0.000000000000
 O    1.397953967048   -3.796630590437    0.000000000000
 H    2.121903967048   -3.145430590437    0.000000000000
 K   -0.054836032952    0.546059409563    0.000000000000
 O   -0.154751296294    1.541055359380    0.000000000000
 C   -0.200596732093    2.773853201087    0.000000000000
 O   -1.362352872015    3.442149197598    0.000000000000
 H   -2.086304892972    2.790947954546    0.000000000000
 C    0.986565679162    3.683980830270    0.000000000000
 H    1.906687235576    3.092563243939    0.000000000000
 H    0.945875908992    4.332767208573   -0.885966057382
 H    0.945875908992    4.332767208573    0.885966057382
