17

 C   -0.943422885827   -4.113578251011    0.000000000000
 H   -1.863542885827   -3.522168251011    0.000000000000
 H   -0.902732885827   -4.762368251011    0.885960000000
 H   -0.902732885827   -4.762368251011   -0.885960000000
 C    0.243737114173   -3.203458251011    0.000000000000
 O    0.197887114173   -1.970658251011    0.000000000000
 O    1.405497114173   -3.871748251011    0.000000000000
 H    2.129447114173   -3.220548251011    0.000000000000
 K   -0.047292885827    0.470941748989    0.000000000000
 O   -0.167191201838    1.664936888769    0.000000000000
 C   -0.213036637636    2.897734730475    0.000000000000
 O   -1.374792777558    3.566030726987    0.000000000000
 H   -2.098744798516    2.914829483935    0.000000000000
 C    0.974125773618    3.807862359659    0.000000000000
 H    1.894247330032    3.216444773327    0.000000000000
 H    0.933436003448    4.456648737962   -0.885966057382
 H    0.933436003448    4.456648737962    0.885966057382
