17

 C   -0.935879738702   -4.188695911586    0.000000000000
 H   -1.855999738702   -3.597285911586    0.000000000000
 H   -0.895189738702   -4.837485911586    0.885960000000
 H   -0.895189738702   -4.837485911586   -0.885960000000
 C    0.251280261298   -3.278575911586    0.000000000000
 O    0.205430261298   -2.045775911586    0.000000000000
 O    1.413040261298   -3.946865911586    0.000000000000
 H    2.136990261298   -3.295665911586    0.000000000000
 K   -0.039749738702    0.395824088414    0.000000000000
 O   -0.179631107381    1.788818418157    0.000000000000
 C   -0.225476543180    3.021616259864    0.000000000000
 O   -1.387232683102    3.689912256376    0.000000000000
 H   -2.111184704059    3.038711013324    0.000000000000
 C    0.961685868075    3.931743889048    0.000000000000
 H    1.881807424489    3.340326302716    0.000000000000
 H    0.920996097904    4.580530267350   -0.885966057382
 H    0.920996097904    4.580530267350    0.885966057382
