17

 C   -0.920793444453   -4.338931232735    0.000000000000
 H   -1.840913444453   -3.747521232735    0.000000000000
 H   -0.880103444453   -4.987721232735    0.885960000000
 H   -0.880103444453   -4.987721232735   -0.885960000000
 C    0.266366555547   -3.428811232735    0.000000000000
 O    0.220516555547   -2.196011232735    0.000000000000
 O    1.428126555547   -4.097101232735    0.000000000000
 H    2.152076555547   -3.445901232735    0.000000000000
 K   -0.024663444453    0.245588767265    0.000000000000
 O   -0.204510918469    2.036581476935    0.000000000000
 C   -0.250356354268    3.269379318641    0.000000000000
 O   -1.412112494190    3.937675315153    0.000000000000
 H   -2.136064515147    3.286474072101    0.000000000000
 C    0.936806056987    4.179506947825    0.000000000000
 H    1.856927613401    3.588089361493    0.000000000000
 H    0.896116286817    4.828293326128   -0.885966057382
 H    0.896116286817    4.828293326128    0.885966057382
