17

 C   -0.898164003079   -4.564284214459    0.000000000000
 H   -1.818284003079   -3.972874214459    0.000000000000
 H   -0.857474003079   -5.213074214459    0.885960000000
 H   -0.857474003079   -5.213074214459   -0.885960000000
 C    0.288995996921   -3.654164214459    0.000000000000
 O    0.243145996921   -2.421364214459    0.000000000000
 O    1.450755996921   -4.322454214459    0.000000000000
 H    2.174705996921   -3.671254214459    0.000000000000
 K   -0.002034003079    0.020235785541    0.000000000000
 O   -0.241830635100    2.408226065101    0.000000000000
 C   -0.287676070899    3.641023906807    0.000000000000
 O   -1.449432210821    4.309319903319    0.000000000000
 H   -2.173384231778    3.658118660267    0.000000000000
 C    0.899486340356    4.551151535991    0.000000000000
 H    1.819607896770    3.959733949659    0.000000000000
 H    0.858796570186    5.199937914294   -0.885966057382
 H    0.858796570186    5.199937914294    0.885966057382
