17

 C   -0.883077708829   -4.714519535608    0.000000000000
 H   -1.803197708829   -4.123109535608    0.000000000000
 H   -0.842387708829   -5.363309535608    0.885960000000
 H   -0.842387708829   -5.363309535608   -0.885960000000
 C    0.304082291171   -3.804399535608    0.000000000000
 O    0.258232291171   -2.571599535608    0.000000000000
 O    1.465842291171   -4.472689535608    0.000000000000
 H    2.189792291171   -3.821489535608    0.000000000000
 K    0.013052291171   -0.129999535608    0.000000000000
 O   -0.266710446187    2.655989123878    0.000000000000
 C   -0.312555881986    3.888786965585    0.000000000000
 O   -1.474312021908    4.557082962096    0.000000000000
 H   -2.198264042865    3.905881719045    0.000000000000
 C    0.874606529269    4.798914594768    0.000000000000
 H    1.794728085683    4.207497008437    0.000000000000
 H    0.833916759098    5.447700973071   -0.885966057382
 H    0.833916759098    5.447700973071    0.885966057382
