17

 C   -0.879306135267   -4.752078365895    0.000000000000
 H   -1.799426135267   -4.160668365895    0.000000000000
 H   -0.838616135267   -5.400868365895    0.885960000000
 H   -0.838616135267   -5.400868365895   -0.885960000000
 C    0.307853864733   -3.841958365895    0.000000000000
 O    0.262003864733   -2.609158365895    0.000000000000
 O    1.469613864733   -4.510248365895    0.000000000000
 H    2.193563864733   -3.859048365895    0.000000000000
 K    0.016823864733   -0.167558365895    0.000000000000
 O   -0.272930398959    2.717929888572    0.000000000000
 C   -0.318775834758    3.950727730279    0.000000000000
 O   -1.480531974680    4.619023726791    0.000000000000
 H   -2.204483995637    3.967822483739    0.000000000000
 C    0.868386576497    4.860855359463    0.000000000000
 H    1.788508132911    4.269437773131    0.000000000000
 H    0.827696806326    5.509641737765   -0.885966057382
 H    0.827696806326    5.509641737765    0.885966057382
