17

 C   -0.871762988142   -4.827196026470    0.000000000000
 H   -1.791882988142   -4.235786026470    0.000000000000
 H   -0.831072988142   -5.475986026470    0.885960000000
 H   -0.831072988142   -5.475986026470   -0.885960000000
 C    0.315397011858   -3.917076026470    0.000000000000
 O    0.269547011858   -2.684276026470    0.000000000000
 O    1.477157011858   -4.585366026470    0.000000000000
 H    2.201107011858   -3.934166026470    0.000000000000
 K    0.024367011858   -0.242676026470    0.000000000000
 O   -0.285370304503    2.841811417961    0.000000000000
 C   -0.331215740302    4.074609259668    0.000000000000
 O   -1.492971880224    4.742905256179    0.000000000000
 H   -2.216923901181    4.091704013128    0.000000000000
 C    0.855946670953    4.984736888851    0.000000000000
 H    1.776068227367    4.393319302520    0.000000000000
 H    0.815256900783    5.633523267154   -0.885966057382
 H    0.815256900783    5.633523267154    0.885966057382
