17

 C   -0.867991414580   -4.864754856757    0.000000000000
 H   -1.788111414580   -4.273344856757    0.000000000000
 H   -0.827301414580   -5.513544856757    0.885960000000
 H   -0.827301414580   -5.513544856757   -0.885960000000
 C    0.319168585420   -3.954634856757    0.000000000000
 O    0.273318585420   -2.721834856757    0.000000000000
 O    1.480928585420   -4.622924856757    0.000000000000
 H    2.204878585420   -3.971724856757    0.000000000000
 K    0.028138585420   -0.280234856757    0.000000000000
 O   -0.291590257275    2.903752182655    0.000000000000
 C   -0.337435693073    4.136550024362    0.000000000000
 O   -1.499191832995    4.804846020874    0.000000000000
 H   -2.223143853953    4.153644777822    0.000000000000
 C    0.849726718181    5.046677653546    0.000000000000
 H    1.769848274595    4.455260067214    0.000000000000
 H    0.809036948011    5.695464031848   -0.885966057382
 H    0.809036948011    5.695464031848    0.885966057382
