17

 C   -0.860448267455   -4.939872517332    0.000000000000
 H   -1.780568267455   -4.348462517332    0.000000000000
 H   -0.819758267455   -5.588662517332    0.885960000000
 H   -0.819758267455   -5.588662517332   -0.885960000000
 C    0.326711732545   -4.029752517332    0.000000000000
 O    0.280861732545   -2.796952517332    0.000000000000
 O    1.488471732545   -4.698042517332    0.000000000000
 H    2.212421732545   -4.046842517332    0.000000000000
 K    0.035681732545   -0.355352517332    0.000000000000
 O   -0.304030162818    3.027633712044    0.000000000000
 C   -0.349875598617    4.260431553751    0.000000000000
 O   -1.511631738539    4.928727550262    0.000000000000
 H   -2.235583759496    4.277526307211    0.000000000000
 C    0.837286812638    5.170559182934    0.000000000000
 H    1.757408369052    4.579141596603    0.000000000000
 H    0.796597042467    5.819345561237   -0.885966057382
 H    0.796597042467    5.819345561237    0.885966057382
