17

 C   -0.845361973206   -5.090107838481    0.000000000000
 H   -1.765481973206   -4.498697838481    0.000000000000
 H   -0.804671973206   -5.738897838481    0.885960000000
 H   -0.804671973206   -5.738897838481   -0.885960000000
 C    0.341798026794   -4.179987838481    0.000000000000
 O    0.295948026794   -2.947187838481    0.000000000000
 O    1.503558026794   -4.848277838481    0.000000000000
 H    2.227508026794   -4.197077838481    0.000000000000
 K    0.050768026794   -0.505587838481    0.000000000000
 O   -0.328909973906    3.275396770821    0.000000000000
 C   -0.374755409705    4.508194612528    0.000000000000
 O   -1.536511549627    5.176490609040    0.000000000000
 H   -2.260463570584    4.525289365988    0.000000000000
 C    0.812407001550    5.418322241712    0.000000000000
 H    1.732528557964    4.826904655380    0.000000000000
 H    0.771717231380    6.067108620014   -0.885966057382
 H    0.771717231380    6.067108620014    0.885966057382
