17

 C   -0.834047252519   -5.202784329343    0.000000000000
 H   -1.754167252519   -4.611374329343    0.000000000000
 H   -0.793357252519   -5.851574329343    0.885960000000
 H   -0.793357252519   -5.851574329343   -0.885960000000
 C    0.353112747481   -4.292664329343    0.000000000000
 O    0.307262747481   -3.059864329343    0.000000000000
 O    1.514872747481   -4.960954329343    0.000000000000
 H    2.238822747481   -4.309754329343    0.000000000000
 K    0.062082747481   -0.618264329343    0.000000000000
 O   -0.347569832221    3.461219064904    0.000000000000
 C   -0.393415268020    4.694016906611    0.000000000000
 O   -1.555171407942    5.362312903123    0.000000000000
 H   -2.279123428899    4.711111660071    0.000000000000
 C    0.793747143235    5.604144535795    0.000000000000
 H    1.713868699649    5.012726949463    0.000000000000
 H    0.753057373064    6.252930914097   -0.885966057382
 H    0.753057373064    6.252930914097    0.885966057382
