17

 C   -0.822732531832   -5.315460820205    0.000000000000
 H   -1.742852531832   -4.724050820205    0.000000000000
 H   -0.782042531832   -5.964250820205    0.885960000000
 H   -0.782042531832   -5.964250820205   -0.885960000000
 C    0.364427468168   -4.405340820205    0.000000000000
 O    0.318577468168   -3.172540820205    0.000000000000
 O    1.526187468168   -5.073630820205    0.000000000000
 H    2.250137468168   -4.422430820205    0.000000000000
 K    0.073397468168   -0.730940820205    0.000000000000
 O   -0.366229690537    3.647041358987    0.000000000000
 C   -0.412075126336    4.879839200694    0.000000000000
 O   -1.573831266258    5.548135197206    0.000000000000
 H   -2.297783287215    4.896933954154    0.000000000000
 C    0.775087284919    5.789966829878    0.000000000000
 H    1.695208841333    5.198549243546    0.000000000000
 H    0.734397514749    6.438753208180   -0.885966057382
 H    0.734397514749    6.438753208180    0.885966057382
