17

 C   -0.818960958269   -5.353019650493    0.000000000000
 H   -1.739080958269   -4.761609650493    0.000000000000
 H   -0.778270958269   -6.001809650493    0.885960000000
 H   -0.778270958269   -6.001809650493   -0.885960000000
 C    0.368199041731   -4.442899650493    0.000000000000
 O    0.322349041731   -3.210099650493    0.000000000000
 O    1.529959041731   -5.111189650493    0.000000000000
 H    2.253909041731   -4.459989650493    0.000000000000
 K    0.077169041731   -0.768499650493    0.000000000000
 O   -0.372449643309    3.708982123682    0.000000000000
 C   -0.418295079108    4.941779965388    0.000000000000
 O   -1.580051219030    5.610075961900    0.000000000000
 H   -2.304003239987    4.958874718848    0.000000000000
 C    0.768867332147    5.851907594572    0.000000000000
 H    1.688988888561    5.260490008240    0.000000000000
 H    0.728177561977    6.500693972875   -0.885966057382
 H    0.728177561977    6.500693972875    0.885966057382
