17

 C   -0.788788369771   -5.653490292791    0.000000000000
 H   -1.708908369771   -5.062080292791    0.000000000000
 H   -0.748098369771   -6.302280292791    0.885960000000
 H   -0.748098369771   -6.302280292791   -0.885960000000
 C    0.398371630229   -4.743370292791    0.000000000000
 O    0.352521630229   -3.510570292791    0.000000000000
 O    1.560131630229   -5.411660292791    0.000000000000
 H    2.284081630229   -4.760460292791    0.000000000000
 K    0.107341630229   -1.068970292791    0.000000000000
 O   -0.422209265484    4.204508241237    0.000000000000
 C   -0.468054701282    5.437306082943    0.000000000000
 O   -1.629810841204    6.105602079455    0.000000000000
 H   -2.353762862162    5.454400836403    0.000000000000
 C    0.719107709972    6.347433712127    0.000000000000
 H    1.639229266386    5.756016125795    0.000000000000
 H    0.678417939802    6.996220090429   -0.885966057382
 H    0.678417939802    6.996220090429    0.885966057382
