17

 C   -0.781245222646   -5.728607953366    0.000000000000
 H   -1.701365222646   -5.137197953366    0.000000000000
 H   -0.740555222646   -6.377397953366    0.885960000000
 H   -0.740555222646   -6.377397953366   -0.885960000000
 C    0.405914777354   -4.818487953366    0.000000000000
 O    0.360064777354   -3.585687953366    0.000000000000
 O    1.567674777354   -5.486777953366    0.000000000000
 H    2.291624777354   -4.835577953366    0.000000000000
 K    0.114884777354   -1.144087953366    0.000000000000
 O   -0.434649171027    4.328389770625    0.000000000000
 C   -0.480494606826    5.561187612332    0.000000000000
 O   -1.642250746748    6.229483608843    0.000000000000
 H   -2.366202767705    5.578282365792    0.000000000000
 C    0.706667804429    6.471315241516    0.000000000000
 H    1.626789360843    5.879897655184    0.000000000000
 H    0.665978034258    7.120101619818   -0.885966057382
 H    0.665978034258    7.120101619818    0.885966057382
