17

 C   -0.762387354834   -5.916402104802    0.000000000000
 H   -1.682507354834   -5.324992104802    0.000000000000
 H   -0.721697354834   -6.565192104802    0.885960000000
 H   -0.721697354834   -6.565192104802   -0.885960000000
 C    0.424772645166   -5.006282104802    0.000000000000
 O    0.378922645166   -3.773482104802    0.000000000000
 O    1.586532645166   -5.674572104802    0.000000000000
 H    2.310482645166   -5.023372104802    0.000000000000
 K    0.133742645166   -1.331882104802    0.000000000000
 O   -0.465748934887    4.638093594097    0.000000000000
 C   -0.511594370685    5.870891435803    0.000000000000
 O   -1.673350510607    6.539187432315    0.000000000000
 H   -2.397302531564    5.887986189263    0.000000000000
 C    0.675568040569    6.781019064987    0.000000000000
 H    1.595689596983    6.189601478656    0.000000000000
 H    0.634878270399    7.429805443290   -0.885966057382
 H    0.634878270399    7.429805443290    0.885966057382
