17

 C   -0.758615781272   -5.953960935090    0.000000000000
 H   -1.678735781272   -5.362550935090    0.000000000000
 H   -0.717925781272   -6.602750935090    0.885960000000
 H   -0.717925781272   -6.602750935090   -0.885960000000
 C    0.428544218728   -5.043840935090    0.000000000000
 O    0.382694218728   -3.811040935090    0.000000000000
 O    1.590304218728   -5.712130935090    0.000000000000
 H    2.314254218728   -5.060930935090    0.000000000000
 K    0.137514218728   -1.369440935090    0.000000000000
 O   -0.471968887658    4.700034358791    0.000000000000
 C   -0.517814323457    5.932832200498    0.000000000000
 O   -1.679570463379    6.601128197009    0.000000000000
 H   -2.403522484336    5.949926953958    0.000000000000
 C    0.669348087798    6.842959829682    0.000000000000
 H    1.589469644212    6.251542243350    0.000000000000
 H    0.628658317627    7.491746207984   -0.885966057382
 H    0.628658317627    7.491746207984    0.885966057382
