17

 C   -0.747301060585   -6.066637425952    0.000000000000
 H   -1.667421060585   -5.475227425952    0.000000000000
 H   -0.706611060585   -6.715427425952    0.885960000000
 H   -0.706611060585   -6.715427425952   -0.885960000000
 C    0.439858939415   -5.156517425952    0.000000000000
 O    0.394008939415   -3.923717425952    0.000000000000
 O    1.601618939415   -5.824807425952    0.000000000000
 H    2.325568939415   -5.173607425952    0.000000000000
 K    0.148828939415   -1.482117425952    0.000000000000
 O   -0.490628745974    4.885856652874    0.000000000000
 C   -0.536474181773    6.118654494581    0.000000000000
 O   -1.698230321695    6.786950491092    0.000000000000
 H   -2.422182342652    6.135749248041    0.000000000000
 C    0.650688229482    7.028782123765    0.000000000000
 H    1.570809785896    6.437364537433    0.000000000000
 H    0.609998459312    7.677568502067   -0.885966057382
 H    0.609998459312    7.677568502067    0.885966057382
