17

 C   -0.735986339898   -6.179313916813    0.000000000000
 H   -1.656106339898   -5.587903916813    0.000000000000
 H   -0.695296339898   -6.828103916813    0.885960000000
 H   -0.695296339898   -6.828103916813   -0.885960000000
 C    0.451173660102   -5.269193916813    0.000000000000
 O    0.405323660102   -4.036393916813    0.000000000000
 O    1.612933660102   -5.937483916813    0.000000000000
 H    2.336883660102   -5.286283916813    0.000000000000
 K    0.160143660102   -1.594793916813    0.000000000000
 O   -0.509288604289    5.071678946957    0.000000000000
 C   -0.555134040088    6.304476788664    0.000000000000
 O   -1.716890180010    6.972772785175    0.000000000000
 H   -2.440842200967    6.321571542124    0.000000000000
 C    0.632028371166    7.214604417848    0.000000000000
 H    1.552149927580    6.623186831516    0.000000000000
 H    0.591338600996    7.863390796150   -0.885966057382
 H    0.591338600996    7.863390796150    0.885966057382
