17

 C   -0.724671619211   -6.291990407675    0.000000000000
 H   -1.644791619211   -5.700580407675    0.000000000000
 H   -0.683981619211   -6.940780407675    0.885960000000
 H   -0.683981619211   -6.940780407675   -0.885960000000
 C    0.462488380789   -5.381870407675    0.000000000000
 O    0.416638380789   -4.149070407675    0.000000000000
 O    1.624248380789   -6.050160407675    0.000000000000
 H    2.348198380789   -5.398960407675    0.000000000000
 K    0.171458380789   -1.707470407675    0.000000000000
 O   -0.527948462605    5.257501241040    0.000000000000
 C   -0.573793898404    6.490299082747    0.000000000000
 O   -1.735550038326    7.158595079258    0.000000000000
 H   -2.459502059283    6.507393836207    0.000000000000
 C    0.613368512851    7.400426711931    0.000000000000
 H    1.533490069265    6.809009125599    0.000000000000
 H    0.572678742680    8.049213090233   -0.885966057382
 H    0.572678742680    8.049213090233    0.885966057382
