17

 C   -0.717128472086   -6.367108068250    0.000000000000
 H   -1.637248472086   -5.775698068250    0.000000000000
 H   -0.676438472086   -7.015898068250    0.885960000000
 H   -0.676438472086   -7.015898068250   -0.885960000000
 C    0.470031527914   -5.456988068250    0.000000000000
 O    0.424181527914   -4.224188068250    0.000000000000
 O    1.631791527914   -6.125278068250    0.000000000000
 H    2.355741527914   -5.474078068250    0.000000000000
 K    0.179001527914   -1.782588068250    0.000000000000
 O   -0.540388368149    5.381382770429    0.000000000000
 C   -0.586233803948    6.614180612136    0.000000000000
 O   -1.747989943870    7.282476608647    0.000000000000
 H   -2.471941964827    6.631275365595    0.000000000000
 C    0.600928607307    7.524308241319    0.000000000000
 H    1.521050163721    6.932890654988    0.000000000000
 H    0.560238837137    8.173094619622   -0.885966057382
 H    0.560238837137    8.173094619622    0.885966057382
