17

 C   -0.713356898523   -6.404666898537    0.000000000000
 H   -1.633476898523   -5.813256898537    0.000000000000
 H   -0.672666898523   -7.053456898537    0.885960000000
 H   -0.672666898523   -7.053456898537   -0.885960000000
 C    0.473803101477   -5.494546898537    0.000000000000
 O    0.427953101477   -4.261746898537    0.000000000000
 O    1.635563101477   -6.162836898537    0.000000000000
 H    2.359513101477   -5.511636898537    0.000000000000
 K    0.182773101477   -1.820146898537    0.000000000000
 O   -0.546608320921    5.443323535123    0.000000000000
 C   -0.592453756719    6.676121376830    0.000000000000
 O   -1.754209896641    7.344417373341    0.000000000000
 H   -2.478161917599    6.693216130290    0.000000000000
 C    0.594708654535    7.586249006014    0.000000000000
 H    1.514830210949    6.994831419682    0.000000000000
 H    0.554018884365    8.235035384316   -0.885966057382
 H    0.554018884365    8.235035384316    0.885966057382
