17

 C   -0.709585324961   -6.442225728825    0.000000000000
 H   -1.629705324961   -5.850815728825    0.000000000000
 H   -0.668895324961   -7.091015728825    0.885960000000
 H   -0.668895324961   -7.091015728825   -0.885960000000
 C    0.477574675039   -5.532105728825    0.000000000000
 O    0.431724675039   -4.299305728825    0.000000000000
 O    1.639334675039   -6.200395728825    0.000000000000
 H    2.363284675039   -5.549195728825    0.000000000000
 K    0.186544675039   -1.857705728825    0.000000000000
 O   -0.552828273692    5.505264299818    0.000000000000
 C   -0.598673709491    6.738062141524    0.000000000000
 O   -1.760429849413    7.406358138036    0.000000000000
 H   -2.484381870370    6.755156894984    0.000000000000
 C    0.588488701763    7.648189770708    0.000000000000
 H    1.508610258177    7.056772184376    0.000000000000
 H    0.547798931593    8.296976149011   -0.885966057382
 H    0.547798931593    8.296976149011    0.885966057382
