17

 C   -0.686955883587   -6.667578710549    0.000000000000
 H   -1.607075883587   -6.076168710549    0.000000000000
 H   -0.646265883587   -7.316368710549    0.885960000000
 H   -0.646265883587   -7.316368710549   -0.885960000000
 C    0.500204116413   -5.757458710549    0.000000000000
 O    0.454354116413   -4.524658710549    0.000000000000
 O    1.661964116413   -6.425748710549    0.000000000000
 H    2.385914116413   -5.774548710549    0.000000000000
 K    0.209174116413   -2.083058710549    0.000000000000
 O   -0.590147990324    5.876908887984    0.000000000000
 C   -0.635993426122    7.109706729690    0.000000000000
 O   -1.797749566044    7.778002726202    0.000000000000
 H   -2.521701587002    7.126801483150    0.000000000000
 C    0.551168985132    8.019834358874    0.000000000000
 H    1.471290541546    7.428416772542    0.000000000000
 H    0.510479214962    8.668620737177   -0.885966057382
 H    0.510479214962    8.668620737177    0.885966057382
