17

 C   -0.671869589338   -6.817814031698    0.000000000000
 H   -1.591989589338   -6.226404031698    0.000000000000
 H   -0.631179589338   -7.466604031698    0.885960000000
 H   -0.631179589338   -7.466604031698   -0.885960000000
 C    0.515290410662   -5.907694031698    0.000000000000
 O    0.469440410662   -4.674894031698    0.000000000000
 O    1.677050410662   -6.575984031698    0.000000000000
 H    2.401000410662   -5.924784031698    0.000000000000
 K    0.224260410662   -2.233294031698    0.000000000000
 O   -0.615027801411    6.124671946761    0.000000000000
 C   -0.660873237210    7.357469788468    0.000000000000
 O   -1.822629377132    8.025765784979    0.000000000000
 H   -2.546581398089    7.374564541927    0.000000000000
 C    0.526289174045    8.267597417651    0.000000000000
 H    1.446410730459    7.676179831320    0.000000000000
 H    0.485599403874    8.916383795954   -0.885966057382
 H    0.485599403874    8.916383795954    0.885966057382
