17

 C   -0.668098015775   -6.855372861985    0.000000000000
 H   -1.588218015775   -6.263962861985    0.000000000000
 H   -0.627408015775   -7.504162861985    0.885960000000
 H   -0.627408015775   -7.504162861985   -0.885960000000
 C    0.519061984225   -5.945252861985    0.000000000000
 O    0.473211984225   -4.712452861985    0.000000000000
 O    1.680821984225   -6.613542861985    0.000000000000
 H    2.404771984225   -5.962342861985    0.000000000000
 K    0.228031984225   -2.270852861985    0.000000000000
 O   -0.621247754183    6.186612711455    0.000000000000
 C   -0.667093189982    7.419410553162    0.000000000000
 O   -1.828849329904    8.087706549674    0.000000000000
 H   -2.552801350861    7.436505306622    0.000000000000
 C    0.520069221273    8.329538182346    0.000000000000
 H    1.440190777687    7.738120596014    0.000000000000
 H    0.479379451103    8.978324560648   -0.885966057382
 H    0.479379451103    8.978324560648    0.885966057382
