17

 C   -0.660554868650   -6.930490522560    0.000000000000
 H   -1.580674868650   -6.339080522560    0.000000000000
 H   -0.619864868650   -7.579280522560    0.885960000000
 H   -0.619864868650   -7.579280522560   -0.885960000000
 C    0.526605131350   -6.020370522560    0.000000000000
 O    0.480755131350   -4.787570522560    0.000000000000
 O    1.688365131350   -6.688660522560    0.000000000000
 H    2.412315131350   -6.037460522560    0.000000000000
 K    0.235575131350   -2.345970522560    0.000000000000
 O   -0.633687659727    6.310494240844    0.000000000000
 C   -0.679533095525    7.543292082551    0.000000000000
 O   -1.841289235447    8.211588079062    0.000000000000
 H   -2.565241256405    7.560386836010    0.000000000000
 C    0.507629315729    8.453419711734    0.000000000000
 H    1.427750872143    7.862002125403    0.000000000000
 H    0.466939545559    9.102206090037   -0.885966057382
 H    0.466939545559    9.102206090037    0.885966057382
