17

 C   -0.653011721526   -7.005608183134    0.000000000000
 H   -1.573131721526   -6.414198183134    0.000000000000
 H   -0.612321721526   -7.654398183134    0.885960000000
 H   -0.612321721526   -7.654398183134   -0.885960000000
 C    0.534148278474   -6.095488183134    0.000000000000
 O    0.488298278474   -4.862688183134    0.000000000000
 O    1.695908278474   -6.763778183134    0.000000000000
 H    2.419858278474   -6.112578183134    0.000000000000
 K    0.243118278474   -2.421088183134    0.000000000000
 O   -0.646127565270    6.434375770233    0.000000000000
 C   -0.691973001069    7.667173611939    0.000000000000
 O   -1.853729140991    8.335469608451    0.000000000000
 H   -2.577681161948    7.684268365399    0.000000000000
 C    0.495189410186    8.577301241123    0.000000000000
 H    1.415310966600    7.985883654791    0.000000000000
 H    0.454499640015    9.226087619426   -0.885966057382
 H    0.454499640015    9.226087619426    0.885966057382
