17

 C   -0.649240147963   -7.043167013422    0.000000000000
 H   -1.569360147963   -6.451757013422    0.000000000000
 H   -0.608550147963   -7.691957013422    0.885960000000
 H   -0.608550147963   -7.691957013422   -0.885960000000
 C    0.537919852037   -6.133047013422    0.000000000000
 O    0.492069852037   -4.900247013422    0.000000000000
 O    1.699679852037   -6.801337013422    0.000000000000
 H    2.423629852037   -6.150137013422    0.000000000000
 K    0.246889852037   -2.458647013422    0.000000000000
 O   -0.652347518042    6.496316534927    0.000000000000
 C   -0.698192953841    7.729114376634    0.000000000000
 O   -1.859949093763    8.397410373145    0.000000000000
 H   -2.583901114720    7.746209130093    0.000000000000
 C    0.488969457414    8.639242005817    0.000000000000
 H    1.409091013828    8.047824419486    0.000000000000
 H    0.448279687243    9.288028384120   -0.885966057382
 H    0.448279687243    9.288028384120    0.885966057382
