17

 C   -0.634153853714   -7.193402334571    0.000000000000
 H   -1.554273853714   -6.601992334571    0.000000000000
 H   -0.593463853714   -7.842192334571    0.885960000000
 H   -0.593463853714   -7.842192334571   -0.885960000000
 C    0.553006146286   -6.283282334571    0.000000000000
 O    0.507156146286   -5.050482334571    0.000000000000
 O    1.714766146286   -6.951572334571    0.000000000000
 H    2.438716146286   -6.300372334571    0.000000000000
 K    0.261976146286   -2.608882334571    0.000000000000
 O   -0.677227329130    6.744079593704    0.000000000000
 C   -0.723072764928    7.976877435411    0.000000000000
 O   -1.884828904850    8.645173431923    0.000000000000
 H   -2.608780925808    7.993972188871    0.000000000000
 C    0.464089646326    8.887005064595    0.000000000000
 H    1.384211202740    8.295587478263    0.000000000000
 H    0.423399876156    9.535791442897   -0.885966057382
 H    0.423399876156    9.535791442897    0.885966057382
