17

 C   -0.619067559465   -7.343637655720    0.000000000000
 H   -1.539187559465   -6.752227655720    0.000000000000
 H   -0.578377559465   -7.992427655720    0.885960000000
 H   -0.578377559465   -7.992427655720   -0.885960000000
 C    0.568092440535   -6.433517655720    0.000000000000
 O    0.522242440535   -5.200717655720    0.000000000000
 O    1.729852440535   -7.101807655720    0.000000000000
 H    2.453802440535   -6.450607655720    0.000000000000
 K    0.277062440535   -2.759117655720    0.000000000000
 O   -0.702107140217    6.991842652482    0.000000000000
 C   -0.747952576016    8.224640494188    0.000000000000
 O   -1.909708715938    8.892936490700    0.000000000000
 H   -2.633660736895    8.241735247648    0.000000000000
 C    0.439209835239    9.134768123372    0.000000000000
 H    1.359331391653    8.543350537040    0.000000000000
 H    0.398520065069    9.783554501675   -0.885966057382
 H    0.398520065069    9.783554501675    0.885966057382
