10

 C    0.400081136987    2.503048462686    0.000075796225
 H    0.793568136987    3.516177462686    0.000295796225
 C    1.012114136987    1.252940462686    0.000111796225
 H    2.077821136987    1.034213462686    0.000017796225
 N   -0.955006863013    2.234080462686    0.000063796225
 H   -1.699940863013    2.920730462686    0.000317796225
 C   -1.112812863013    0.870040462686    0.000118796225
 H   -2.090436863013    0.394024462686   -0.000007203775
 N    0.066103136987    0.243445462686    0.000107796225
RB    0.115189837869   -1.155693722992   -0.000079006167
