10

 C    0.390348590420    2.780459391395    0.000112834016
 H    0.783835590420    3.793588391395    0.000332834016
 C    1.002381590420    1.530351391395    0.000148834016
 H    2.068088590420    1.311624391395    0.000054834016
 N   -0.964739409580    2.511491391395    0.000100834016
 H   -1.709673409580    3.198141391395    0.000354834016
 C   -1.122545409580    1.147451391395    0.000155834016
 H   -2.100169409580    0.671435391395    0.000029834016
 N    0.056370590420    0.520856391395    0.000144834016
RB    0.122988255903   -1.377975360597   -0.000108683516
