10

 C    0.232681336028    7.274516436481    0.000712846234
 H    0.626168336028    8.287645436481    0.000932846234
 C    0.844714336028    6.024408436481    0.000748846234
 H    1.910421336028    5.805681436481    0.000654846234
 N   -1.122406663972    7.005548436481    0.000700846234
 H   -1.867340663972    7.692198436481    0.000954846234
 C   -1.280212663972    5.641508436481    0.000755846234
 H   -2.257836663972    5.165492436481    0.000629846234
 N   -0.101296663972    5.014913436481    0.000744846234
RB    0.249322628041   -4.978937889794   -0.000589456566
