10

 C    0.372830006599    3.279799063072    0.000179502040
 H    0.766317006599    4.292928063072    0.000399502040
 C    0.984863006599    2.029691063072    0.000215502040
 H    2.050570006599    1.810964063072    0.000121502040
 N   -0.982257993401    3.010831063072    0.000167502040
 H   -1.727191993401    3.697481063072    0.000421502040
 C   -1.140063993401    1.646791063072    0.000222502040
 H   -2.117687993401    1.170775063072    0.000096502040
 N    0.038852006599    1.020196063072    0.000211502040
RB    0.137025408362   -1.778082308286   -0.000162102744
