10

 C    0.368936987972    3.390763434555    0.000194317157
 H    0.762423987972    4.403892434555    0.000414317157
 C    0.980969987972    2.140655434555    0.000230317157
 H    2.046676987972    1.921928434555    0.000136317157
 N   -0.986151012028    3.121795434555    0.000182317157
 H   -1.731085012028    3.808445434555    0.000436317157
 C   -1.143957012028    1.757755434555    0.000237317157
 H   -2.121581012028    1.281739434555    0.000111317157
 N    0.034958987972    1.131160434555    0.000226317157
RB    0.140144775576   -1.866994963327   -0.000173973683
