10

 C    0.366990478658    3.446245620297    0.000201724715
 H    0.760477478658    4.459374620297    0.000421724715
 C    0.979023478658    2.196137620297    0.000237724715
 H    2.044730478658    1.977410620297    0.000143724715
 N   -0.988097521342    3.177277620297    0.000189724715
 H   -1.733031521342    3.863927620297    0.000443724715
 C   -1.145903521342    1.813237620297    0.000244724715
 H   -2.123527521342    1.337221620297    0.000118724715
 N    0.033012478658    1.186642620297    0.000233724715
RB    0.141704459182   -1.911451290848   -0.000179909153
