10

 C    0.365043969345    3.501727806039    0.000209132273
 H    0.758530969345    4.514856806039    0.000429132273
 C    0.977076969345    2.251619806039    0.000245132273
 H    2.042783969345    2.032892806039    0.000151132273
 N   -0.990044030655    3.232759806039    0.000197132273
 H   -1.734978030655    3.919409806039    0.000451132273
 C   -1.147850030655    1.868719806039    0.000252132273
 H   -2.125474030655    1.392703806039    0.000126132273
 N    0.031065969345    1.242124806039    0.000241132273
RB    0.143264142789   -1.955907618369   -0.000185844623
