10

 C    0.359204441404    3.668174363264    0.000231354948
 H    0.752691441404    4.681303363264    0.000451354948
 C    0.971237441404    2.418066363264    0.000267354948
 H    2.036944441404    2.199339363264    0.000173354948
 N   -0.995883558596    3.399206363264    0.000219354948
 H   -1.740817558596    4.085856363264    0.000473354948
 C   -1.153689558596    2.035166363264    0.000274354948
 H   -2.131313558596    1.559150363264    0.000148354948
 N    0.025226441404    1.408571363264    0.000263354948
RB    0.147943193609   -2.089276600932   -0.000203651032
