10

 C    0.357257932091    3.723656549006    0.000238762506
 H    0.750744932091    4.736785549006    0.000458762506
 C    0.969290932091    2.473548549006    0.000274762506
 H    2.034997932091    2.254821549006    0.000180762506
 N   -0.997830067909    3.454688549006    0.000226762506
 H   -1.742764067909    4.141338549006    0.000480762506
 C   -1.155636067909    2.090648549006    0.000281762506
 H   -2.133260067909    1.614632549006    0.000155762506
 N    0.023279932091    1.464053549006    0.000270762506
RB    0.149502877216   -2.133732928453   -0.000209586502
