10

 C    0.355311422777    3.779138734748    0.000246170065
 H    0.748798422777    4.792267734748    0.000466170065
 C    0.967344422777    2.529030734748    0.000282170065
 H    2.033051422777    2.310303734748    0.000188170065
 N   -0.999776577223    3.510170734748    0.000234170065
 H   -1.744710577223    4.196820734748    0.000488170065
 C   -1.157582577223    2.146130734748    0.000289170065
 H   -2.135206577223    1.670114734748    0.000163170065
 N    0.021333422777    1.519535734748    0.000278170065
RB    0.151062560822   -2.178189255974   -0.000215521971
