10

 C    0.353364913464    3.834620920490    0.000253577623
 H    0.746851913464    4.847749920490    0.000473577623
 C    0.965397913464    2.584512920490    0.000289577623
 H    2.031104913464    2.365785920490    0.000195577623
 N   -1.001723086536    3.565652920490    0.000241577623
 H   -1.746657086536    4.252302920490    0.000495577623
 C   -1.159529086536    2.201612920490    0.000296577623
 H   -2.137153086536    1.725596920490    0.000170577623
 N    0.019386913464    1.575017920490    0.000285577623
RB    0.152622244429   -2.222645583495   -0.000221457441
