10

 C    0.351418404151    3.890103106231    0.000260985181
 H    0.744905404151    4.903232106231    0.000480985181
 C    0.963451404151    2.639995106231    0.000296985181
 H    2.029158404151    2.421268106231    0.000202985181
 N   -1.003669595849    3.621135106231    0.000248985181
 H   -1.748603595849    4.307785106231    0.000502985181
 C   -1.161475595849    2.257095106231    0.000303985181
 H   -2.139099595849    1.781079106231    0.000177985181
 N    0.017440404151    1.630500106231    0.000292985181
RB    0.154181928036   -2.267101911016   -0.000227392911
