10

 C    0.349471894837    3.945585291973    0.000268392739
 H    0.742958894837    4.958714291973    0.000488392739
 C    0.961504894837    2.695477291973    0.000304392739
 H    2.027211894837    2.476750291973    0.000210392739
 N   -1.005616105163    3.676617291973    0.000256392739
 H   -1.750550105163    4.363267291973    0.000510392739
 C   -1.163422105163    2.312577291973    0.000311392739
 H   -2.141046105163    1.836561291973    0.000185392739
 N    0.015493894837    1.685982291973    0.000300392739
RB    0.155741611642   -2.311558238537   -0.000233328381
