10

 C    0.345578876210    4.056549663457    0.000283207856
 H    0.739065876210    5.069678663457    0.000503207856
 C    0.957611876210    2.806441663457    0.000319207856
 H    2.023318876210    2.587714663457    0.000225207856
 N   -1.009509123790    3.787581663457    0.000271207856
 H   -1.754443123790    4.474231663457    0.000525207856
 C   -1.167315123790    2.423541663457    0.000326207856
 H   -2.144939123790    1.947525663457    0.000200207856
 N    0.011600876210    1.796946663457    0.000315207856
RB    0.158860978855   -2.400470893579   -0.000245199320
