10

 C    0.343632366897    4.112031849199    0.000290615414
 H    0.737119366897    5.125160849199    0.000510615414
 C    0.955665366897    2.861923849199    0.000326615414
 H    2.021372366897    2.643196849199    0.000232615414
 N   -1.011455633103    3.843063849199    0.000278615414
 H   -1.756389633103    4.529713849199    0.000532615414
 C   -1.169261633103    2.479023849199    0.000333615414
 H   -2.146885633103    2.003007849199    0.000207615414
 N    0.009654366897    1.852428849199    0.000322615414
RB    0.160420662462   -2.444927221100   -0.000251134790
