10

 C    0.339739348270    4.222996220682    0.000305430531
 H    0.733226348270    5.236125220682    0.000525430531
 C    0.951772348270    2.972888220682    0.000341430531
 H    2.017479348270    2.754161220682    0.000247430531
 N   -1.015348651730    3.954028220682    0.000293430531
 H   -1.760282651730    4.640678220682    0.000547430531
 C   -1.173154651730    2.589988220682    0.000348430531
 H   -2.150778651730    2.113972220682    0.000222430531
 N    0.005761348270    1.963393220682    0.000337430531
RB    0.163540029675   -2.533839876142   -0.000263005730
