10

 C    0.335846329643    4.333960592166    0.000320245647
 H    0.729333329643    5.347089592166    0.000540245647
 C    0.947879329643    3.083852592166    0.000356245647
 H    2.013586329643    2.865125592166    0.000262245647
 N   -1.019241670357    4.064992592166    0.000308245647
 H   -1.764175670357    4.751642592166    0.000562245647
 C   -1.177047670357    2.700952592166    0.000363245647
 H   -2.154671670357    2.224936592166    0.000237245647
 N    0.001868329643    2.074357592166    0.000352245647
RB    0.166659396889   -2.622752531184   -0.000274876669
