10

 C    0.324167273762    4.666853706617    0.000364690997
 H    0.717654273762    5.679982706617    0.000584690997
 C    0.936200273762    3.416745706617    0.000400690997
 H    2.001907273762    3.198018706617    0.000306690997
 N   -1.030920726238    4.397885706617    0.000352690997
 H   -1.775854726238    5.084535706617    0.000606690997
 C   -1.188726726238    3.033845706617    0.000407690997
 H   -2.166350726238    2.557829706617    0.000281690997
 N   -0.009810726238    2.407250706617    0.000396690997
RB    0.176017498529   -2.889490496309   -0.000310489488
