10

 C    0.320274255135    4.777818078100    0.000379506113
 H    0.713761255135    5.790947078100    0.000599506113
 C    0.932307255135    3.527710078100    0.000415506113
 H    1.998014255135    3.308983078100    0.000321506113
 N   -1.034813744865    4.508850078100    0.000367506113
 H   -1.779747744865    5.195500078100    0.000621506113
 C   -1.192619744865    3.144810078100    0.000422506113
 H   -2.170243744865    2.668794078100    0.000296506113
 N   -0.013703744865    2.518215078100    0.000411506113
RB    0.179136865742   -2.978403151351   -0.000322360427
