10

 C    0.318327745821    4.833300263842    0.000386913671
 H    0.711814745821    5.846429263842    0.000606913671
 C    0.930360745821    3.583192263842    0.000422913671
 H    1.996067745821    3.364465263842    0.000328913671
 N   -1.036760254179    4.564332263842    0.000374913671
 H   -1.781694254179    5.250982263842    0.000628913671
 C   -1.194566254179    3.200292263842    0.000429913671
 H   -2.172190254179    2.724276263842    0.000303913671
 N   -0.015650254179    2.573697263842    0.000418913671
RB    0.180696549349   -3.022859478872   -0.000328295897
