10

 C    0.316381236508    4.888782449584    0.000394321230
 H    0.709868236508    5.901911449584    0.000614321230
 C    0.928414236508    3.638674449584    0.000430321230
 H    1.994121236508    3.419947449584    0.000336321230
 N   -1.038706763492    4.619814449584    0.000382321230
 H   -1.783640763492    5.306464449584    0.000636321230
 C   -1.196512763492    3.255774449584    0.000437321230
 H   -2.174136763492    2.779758449584    0.000311321230
 N   -0.017596763492    2.629179449584    0.000426321230
RB    0.182256232955   -3.067315806393   -0.000334231367
