10

 C    0.308595199254    5.110711192551    0.000423951463
 H    0.702082199254    6.123840192551    0.000643951463
 C    0.920628199254    3.860603192551    0.000459951463
 H    1.986335199254    3.641876192551    0.000365951463
 N   -1.046492800746    4.841743192551    0.000411951463
 H   -1.791426800746    5.528393192551    0.000665951463
 C   -1.204298800746    3.477703192551    0.000466951463
 H   -2.181922800746    3.001687192551    0.000340951463
 N   -0.025382800746    2.851108192551    0.000455951463
RB    0.188494967382   -3.245141116477   -0.000357973246
