10

 C    0.306648689941    5.166193378293    0.000431359021
 H    0.700135689941    6.179322378293    0.000651359021
 C    0.918681689941    3.916085378293    0.000467359021
 H    1.984388689941    3.697358378293    0.000373359021
 N   -1.048439310059    4.897225378293    0.000419359021
 H   -1.793373310059    5.583875378293    0.000673359021
 C   -1.206245310059    3.533185378293    0.000474359021
 H   -2.183869310059    3.057169378293    0.000348359021
 N   -0.027329310059    2.906590378293    0.000463359021
RB    0.190054650988   -3.289597443998   -0.000363908715
