10

 C    0.304702180627    5.221675564035    0.000438766579
 H    0.698189180627    6.234804564035    0.000658766579
 C    0.916735180627    3.971567564035    0.000474766579
 H    1.982442180627    3.752840564035    0.000380766579
 N   -1.050385819373    4.952707564035    0.000426766579
 H   -1.795319819373    5.639357564035    0.000680766579
 C   -1.208191819373    3.588667564035    0.000481766579
 H   -2.185815819373    3.112651564035    0.000355766579
 N   -0.029275819373    2.962072564035    0.000470766579
RB    0.191614334595   -3.334053771519   -0.000369844185
