10

 C    0.298862652687    5.388122121260    0.000460989254
 H    0.692349652687    6.401251121260    0.000680989254
 C    0.910895652687    4.138014121260    0.000496989254
 H    1.976602652687    3.919287121260    0.000402989254
 N   -1.056225347313    5.119154121260    0.000448989254
 H   -1.801159347313    5.805804121260    0.000702989254
 C   -1.214031347313    3.755114121260    0.000503989254
 H   -2.191655347313    3.279098121260    0.000377989254
 N   -0.035115347313    3.128519121260    0.000492989254
RB    0.196293385415   -3.467422754082   -0.000387650594
