10

 C    0.293023124746    5.554568678486    0.000483211929
 H    0.686510124746    6.567697678486    0.000703211929
 C    0.905056124746    4.304460678486    0.000519211929
 H    1.970763124746    4.085733678486    0.000425211929
 N   -1.062064875254    5.285600678486    0.000471211929
 H   -1.806998875254    5.972250678486    0.000725211929
 C   -1.219870875254    3.921560678486    0.000526211929
 H   -2.197494875254    3.445544678486    0.000400211929
 N   -0.040954875254    3.294965678486    0.000515211929
RB    0.200972436235   -3.600791736645   -0.000405457004
