10

 C    0.291076615433    5.610050864227    0.000490619487
 H    0.684563615433    6.623179864227    0.000710619487
 C    0.903109615433    4.359942864227    0.000526619487
 H    1.968816615433    4.141215864227    0.000432619487
 N   -1.064011384567    5.341082864227    0.000478619487
 H   -1.808945384567    6.027732864227    0.000732619487
 C   -1.221817384567    3.977042864227    0.000533619487
 H   -2.199441384567    3.501026864227    0.000407619487
 N   -0.042901384567    3.350447864227    0.000522619487
RB    0.202532119842   -3.645248064166   -0.000411392473
