10

 C    0.287183596806    5.721015235711    0.000505434603
 H    0.680670596806    6.734144235711    0.000725434603
 C    0.899216596806    4.470907235711    0.000541434603
 H    1.964923596806    4.252180235711    0.000447434603
 N   -1.067904403194    5.452047235711    0.000493434603
 H   -1.812838403194    6.138697235711    0.000747434603
 C   -1.225710403194    4.088007235711    0.000548434603
 H   -2.203334403194    3.611991235711    0.000422434603
 N   -0.046794403194    3.461412235711    0.000537434603
RB    0.205651487055   -3.734160719208   -0.000423263413
