10

 C    0.281344068865    5.887461792936    0.000527657278
 H    0.674831068865    6.900590792936    0.000747657278
 C    0.893377068865    4.637353792936    0.000563657278
 H    1.959084068865    4.418626792936    0.000469657278
 N   -1.073743931135    5.618493792936    0.000515657278
 H   -1.818677931135    6.305143792936    0.000769657278
 C   -1.231549931135    4.254453792936    0.000570657278
 H   -2.209173931135    3.778437792936    0.000444657278
 N   -0.052633931135    3.627858792936    0.000559657278
RB    0.210330537875   -3.867529701770   -0.000441069822
