10

 C    0.279397559552    5.942943978678    0.000535064836
 H    0.672884559552    6.956072978678    0.000755064836
 C    0.891430559552    4.692835978678    0.000571064836
 H    1.957137559552    4.474108978678    0.000477064836
 N   -1.075690440448    5.673975978678    0.000523064836
 H   -1.820624440448    6.360625978678    0.000777064836
 C   -1.233496440448    4.309935978678    0.000578064836
 H   -2.211120440448    3.833919978678    0.000452064836
 N   -0.054580440448    3.683340978678    0.000567064836
RB    0.211890221482   -3.911986029291   -0.000447005292
