10

 C    0.275504540925    6.053908350162    0.000549879953
 H    0.668991540925    7.067037350162    0.000769879953
 C    0.887537540925    4.803800350162    0.000585879953
 H    1.953244540925    4.585073350162    0.000491879953
 N   -1.079583459075    5.784940350162    0.000537879953
 H   -1.824517459075    6.471590350162    0.000791879953
 C   -1.237389459075    4.420900350162    0.000592879953
 H   -2.215013459075    3.944884350162    0.000466879953
 N   -0.058473459075    3.794305350162    0.000581879953
RB    0.215009588695   -4.000898684333   -0.000458876231
