10

 C    0.269665012984    6.220354907387    0.000572102628
 H    0.663152012984    7.233483907387    0.000792102628
 C    0.881698012984    4.970246907387    0.000608102628
 H    1.947405012984    4.751519907387    0.000514102628
 N   -1.085422987016    5.951386907387    0.000560102628
 H   -1.830356987016    6.638036907387    0.000814102628
 C   -1.243228987016    4.587346907387    0.000615102628
 H   -2.220852987016    4.111330907387    0.000489102628
 N   -0.064312987016    3.960751907387    0.000604102628
RB    0.219688639515   -4.134267666896   -0.000476682641
