10

 C    0.265771994357    6.331319278871    0.000586917744
 H    0.659258994357    7.344448278871    0.000806917744
 C    0.877804994357    5.081211278871    0.000622917744
 H    1.943511994357    4.862484278871    0.000528917744
 N   -1.089316005643    6.062351278871    0.000574917744
 H   -1.834250005643    6.749001278871    0.000828917744
 C   -1.247122005643    4.698311278871    0.000629917744
 H   -2.224746005643    4.222295278871    0.000503917744
 N   -0.068206005643    4.071716278871    0.000618917744
RB    0.222808006728   -4.223180321938   -0.000488553580
