10

 C    0.261878975731    6.442283650354    0.000601732860
 H    0.655365975731    7.455412650354    0.000821732860
 C    0.873911975731    5.192175650354    0.000637732860
 H    1.939618975731    4.973448650354    0.000543732860
 N   -1.093209024269    6.173315650354    0.000589732860
 H   -1.838143024269    6.859965650354    0.000843732860
 C   -1.251015024269    4.809275650354    0.000644732860
 H   -2.228639024269    4.333259650354    0.000518732860
 N   -0.072099024269    4.182680650354    0.000633732860
RB    0.225927373941   -4.312092976980   -0.000500424520
