10

 C    0.257985957104    6.553248021838    0.000616547977
 H    0.651472957104    7.566377021838    0.000836547977
 C    0.870018957104    5.303140021838    0.000652547977
 H    1.935725957104    5.084413021838    0.000558547977
 N   -1.097102042896    6.284280021838    0.000604547977
 H   -1.842036042896    6.970930021838    0.000858547977
 C   -1.254908042896    4.920240021838    0.000659547977
 H   -2.232532042896    4.444224021838    0.000533547977
 N   -0.075992042896    4.293645021838    0.000648547977
RB    0.229046741155   -4.401005632022   -0.000512295459
