10

 C    0.256039447790    6.608730207580    0.000623955535
 H    0.649526447790    7.621859207580    0.000843955535
 C    0.868072447790    5.358622207580    0.000659955535
 H    1.933779447790    5.139895207580    0.000565955535
 N   -1.099048552210    6.339762207580    0.000611955535
 H   -1.843982552210    7.026412207580    0.000865955535
 C   -1.256854552210    4.975722207580    0.000666955535
 H   -2.234478552210    4.499706207580    0.000540955535
 N   -0.077938552210    4.349127207580    0.000655955535
RB    0.230606424761   -4.445461959543   -0.000518230929
