10

 C    0.252146429163    6.719694579063    0.000638770652
 H    0.645633429163    7.732823579063    0.000858770652
 C    0.864179429163    5.469586579063    0.000674770652
 H    1.929886429163    5.250859579063    0.000580770652
 N   -1.102941570837    6.450726579063    0.000626770652
 H   -1.847875570837    7.137376579063    0.000880770652
 C   -1.260747570837    5.086686579063    0.000681770652
 H   -2.238371570837    4.610670579063    0.000555770652
 N   -0.081831570837    4.460091579063    0.000670770652
RB    0.233725791975   -4.534374614585   -0.000530101869
