10

 C    0.244360391909    6.941623322031    0.000668400885
 H    0.637847391909    7.954752322031    0.000888400885
 C    0.856393391909    5.691515322031    0.000704400885
 H    1.922100391909    5.472788322031    0.000610400885
 N   -1.110727608091    6.672655322031    0.000656400885
 H   -1.855661608091    7.359305322031    0.000910400885
 C   -1.268533608091    5.308615322031    0.000711400885
 H   -2.246157608091    4.832599322031    0.000585400885
 N   -0.089617608091    4.682020322031    0.000700400885
RB    0.239964526401   -4.712199924669   -0.000553843748
