10

 C    0.242413882596    6.997105507772    0.000675808443
 H    0.635900882596    8.010234507772    0.000895808443
 C    0.854446882596    5.746997507772    0.000711808443
 H    1.920153882596    5.528270507772    0.000617808443
 N   -1.112674117404    6.728137507772    0.000663808443
 H   -1.857608117404    7.414787507772    0.000917808443
 C   -1.270480117404    5.364097507772    0.000718808443
 H   -2.248104117404    4.888081507772    0.000592808443
 N   -0.091564117404    4.737502507772    0.000707808443
RB    0.241524210008   -4.756656252190   -0.000559779217
