10

 C    0.238520863969    7.108069879256    0.000690623559
 H    0.632007863969    8.121198879256    0.000910623559
 C    0.850553863969    5.857961879256    0.000726623559
 H    1.916260863969    5.639234879256    0.000632623559
 N   -1.116567136031    6.839101879256    0.000678623559
 H   -1.861501136031    7.525751879256    0.000932623559
 C   -1.274373136031    5.475061879256    0.000733623559
 H   -2.251997136031    4.999045879256    0.000607623559
 N   -0.095457136031    4.848466879256    0.000722623559
RB    0.244643577221   -4.845568907231   -0.000571650157
