10

 C    0.236574354655    7.163552064998    0.000698031118
 H    0.630061354655    8.176681064998    0.000918031118
 C    0.848607354655    5.913444064998    0.000734031118
 H    1.914314354655    5.694717064998    0.000640031118
 N   -1.118513645345    6.894584064998    0.000686031118
 H   -1.863447645345    7.581234064998    0.000940031118
 C   -1.276319645345    5.530544064998    0.000741031118
 H   -2.253943645345    5.054528064998    0.000615031118
 N   -0.097403645345    4.903949064998    0.000730031118
RB    0.246203260828   -4.890025234752   -0.000577585627
