10

 C    0.234627845342    7.219034250740    0.000705438676
 H    0.628114845342    8.232163250740    0.000925438676
 C    0.846660845342    5.968926250740    0.000741438676
 H    1.912367845342    5.750199250740    0.000647438676
 N   -1.120460154658    6.950066250740    0.000693438676
 H   -1.865394154658    7.636716250740    0.000947438676
 C   -1.278266154658    5.586026250740    0.000748438676
 H   -2.255890154658    5.110010250740    0.000622438676
 N   -0.099350154658    4.959431250740    0.000737438676
RB    0.247762944434   -4.934481562273   -0.000583521096
