25

 C   -3.551516946836    7.602539777906    0.000000000000
 H   -4.262136946836    8.442259777906    0.000000000000
 H   -2.917966946836    7.681309777906    0.894390000000
 H   -2.917966946836    7.681309777906   -0.894390000000
 C   -4.313606946836    6.291849777906    0.000000000000
 H   -4.962906946836    6.215179777906   -0.893240000000
 H   -4.962906946836    6.215179777906    0.893240000000
 O   -3.384686946836    5.198669777906    0.000000000000
 C   -4.096526946836    3.969409777906    0.000000000000
 H   -4.735146946836    3.880289777906   -0.896750000000
 H   -4.735146946836    3.880289777906    0.896750000000
 H   -3.364216946836    3.145029777906    0.000000000000
CS    0.832683053164   -1.278950222094    0.000000000000
 O    1.541985524887   -2.368395036487    0.000000000000
 C    2.253825772603   -1.139125451843    0.000000000000
 H    2.892445484405   -1.050004706905    0.896752305054
 H    2.892445484405   -1.050004706905   -0.896752305054
 H    1.521516006429   -0.314744753824    0.000000000000
 C    2.470908169201   -3.461572251480    0.000000000000
 H    3.120202138498   -3.384898661744    0.893239500118
 H    3.120202138498   -3.384898661744   -0.893239500118
 C    1.708809307216   -4.772265254079    0.000000000000
 H    2.419430958180   -5.611983582855    0.000000000000
 H    1.075266256375   -4.851035735963   -0.894390122270
 H    1.075266256375   -4.851035735963    0.894390122270
