25

 C   -3.629222320042    7.721890434735    0.000000000000
 H   -4.339842320042    8.561610434735    0.000000000000
 H   -2.995672320042    7.800660434735    0.894390000000
 H   -2.995672320042    7.800660434735   -0.894390000000
 C   -4.391312320042    6.411200434735    0.000000000000
 H   -5.040612320042    6.334530434735   -0.893240000000
 H   -5.040612320042    6.334530434735    0.893240000000
 O   -3.462392320042    5.318020434735    0.000000000000
 C   -4.174232320042    4.088760434735    0.000000000000
 H   -4.812852320042    3.999640434735   -0.896750000000
 H   -4.812852320042    3.999640434735    0.896750000000
 H   -3.441922320042    3.264380434735    0.000000000000
CS    0.754977679958   -1.159599565265    0.000000000000
 O    1.791650523244   -2.751865063224    0.000000000000
 C    2.503490770961   -1.522595478580    0.000000000000
 H    3.142110482763   -1.433474733642    0.896752305054
 H    3.142110482763   -1.433474733642   -0.896752305054
 H    1.771181004787   -0.698214780562    0.000000000000
 C    2.720573167558   -3.845042278217    0.000000000000
 H    3.369867136856   -3.768368688482    0.893239500118
 H    3.369867136856   -3.768368688482   -0.893239500118
 C    1.958474305574   -5.155735280816    0.000000000000
 H    2.669095956537   -5.995453609592    0.000000000000
 H    1.324931254732   -5.234505762701   -0.894390122270
 H    1.324931254732   -5.234505762701    0.894390122270
