25

 C   -3.655124111111    7.761673987012    0.000000000000
 H   -4.365744111111    8.601393987012    0.000000000000
 H   -3.021574111111    7.840443987012    0.894390000000
 H   -3.021574111111    7.840443987012   -0.894390000000
 C   -4.417214111111    6.450983987012    0.000000000000
 H   -5.066514111111    6.374313987012   -0.893240000000
 H   -5.066514111111    6.374313987012    0.893240000000
 O   -3.488294111111    5.357803987012    0.000000000000
 C   -4.200134111111    4.128543987012    0.000000000000
 H   -4.838754111111    4.039423987012   -0.896750000000
 H   -4.838754111111    4.039423987012    0.896750000000
 H   -3.467824111111    3.304163987012    0.000000000000
CS    0.729075888889   -1.119816012988    0.000000000000
 O    1.874872189363   -2.879688405470    0.000000000000
 C    2.586712437080   -1.650418820826    0.000000000000
 H    3.225332148882   -1.561298075888    0.896752305054
 H    3.225332148882   -1.561298075888   -0.896752305054
 H    1.854402670906   -0.826038122807    0.000000000000
 C    2.803794833678   -3.972865620463    0.000000000000
 H    3.453088802975   -3.896192030727    0.893239500118
 H    3.453088802975   -3.896192030727   -0.893239500118
 C    2.041695971693   -5.283558623062    0.000000000000
 H    2.752317622657   -6.123276951838    0.000000000000
 H    1.408152920851   -5.362329104946   -0.894390122270
 H    1.408152920851   -5.362329104946    0.894390122270
