25

 C   -3.719878588783    7.861132867702    0.000000000000
 H   -4.430498588783    8.700852867702    0.000000000000
 H   -3.086328588783    7.939902867702    0.894390000000
 H   -3.086328588783    7.939902867702   -0.894390000000
 C   -4.481968588783    6.550442867702    0.000000000000
 H   -5.131268588783    6.473772867702   -0.893240000000
 H   -5.131268588783    6.473772867702    0.893240000000
 O   -3.553048588783    5.457262867702    0.000000000000
 C   -4.264888588783    4.228002867702    0.000000000000
 H   -4.903508588783    4.138882867702   -0.896750000000
 H   -4.903508588783    4.138882867702    0.896750000000
 H   -3.532578588783    3.403622867702    0.000000000000
CS    0.664321411217   -1.020357132298    0.000000000000
 O    2.082926354661   -3.199246761084    0.000000000000
 C    2.794766602378   -1.969977176440    0.000000000000
 H    3.433386314180   -1.880856431502    0.896752305054
 H    3.433386314180   -1.880856431502   -0.896752305054
 H    2.062456836204   -1.145596478422    0.000000000000
 C    3.011848998976   -4.292423976078    0.000000000000
 H    3.661142968273   -4.215750386342    0.893239500118
 H    3.661142968273   -4.215750386342   -0.893239500118
 C    2.249750136991   -5.603116978677    0.000000000000
 H    2.960371787955   -6.442835307452    0.000000000000
 H    1.616207086149   -5.681887460561   -0.894390122270
 H    1.616207086149   -5.681887460561    0.894390122270
