25

 C   -3.745780379852    7.900916419979    0.000000000000
 H   -4.456400379852    8.740636419979    0.000000000000
 H   -3.112230379852    7.979686419979    0.894390000000
 H   -3.112230379852    7.979686419979   -0.894390000000
 C   -4.507870379852    6.590226419979    0.000000000000
 H   -5.157170379852    6.513556419979   -0.893240000000
 H   -5.157170379852    6.513556419979    0.893240000000
 O   -3.578950379852    5.497046419979    0.000000000000
 C   -4.290790379852    4.267786419979    0.000000000000
 H   -4.929410379852    4.178666419979   -0.896750000000
 H   -4.929410379852    4.178666419979    0.896750000000
 H   -3.558480379852    3.443406419979    0.000000000000
CS    0.638419620148   -0.980573580021    0.000000000000
 O    2.166148020781   -3.327070103330    0.000000000000
 C    2.877988268497   -2.097800518686    0.000000000000
 H    3.516607980299   -2.008679773748    0.896752305054
 H    3.516607980299   -2.008679773748   -0.896752305054
 H    2.145678502323   -1.273419820667    0.000000000000
 C    3.095070665095   -4.420247318323    0.000000000000
 H    3.744364634392   -4.343573728588    0.893239500118
 H    3.744364634392   -4.343573728588   -0.893239500118
 C    2.332971803110   -5.730940320922    0.000000000000
 H    3.043593454074   -6.570658649698    0.000000000000
 H    1.699428752268   -5.809710802807   -0.894390122270
 H    1.699428752268   -5.809710802807    0.894390122270
