25

 C   -3.771682170921    7.940699972255    0.000000000000
 H   -4.482302170921    8.780419972255    0.000000000000
 H   -3.138132170921    8.019469972255    0.894390000000
 H   -3.138132170921    8.019469972255   -0.894390000000
 C   -4.533772170921    6.630009972255    0.000000000000
 H   -5.183072170921    6.553339972255   -0.893240000000
 H   -5.183072170921    6.553339972255    0.893240000000
 O   -3.604852170921    5.536829972255    0.000000000000
 C   -4.316692170921    4.307569972255    0.000000000000
 H   -4.955312170921    4.218449972255   -0.896750000000
 H   -4.955312170921    4.218449972255    0.896750000000
 H   -3.584382170921    3.483189972255    0.000000000000
CS    0.612517829079   -0.940790027745    0.000000000000
 O    2.249369686900   -3.454893445576    0.000000000000
 C    2.961209934616   -2.225623860932    0.000000000000
 H    3.599829646418   -2.136503115994    0.896752305054
 H    3.599829646418   -2.136503115994   -0.896752305054
 H    2.228900168442   -1.401243162913    0.000000000000
 C    3.178292331214   -4.548070660569    0.000000000000
 H    3.827586300511   -4.471397070833    0.893239500118
 H    3.827586300511   -4.471397070833   -0.893239500118
 C    2.416193469229   -5.858763663168    0.000000000000
 H    3.126815120193   -6.698481991944    0.000000000000
 H    1.782650418388   -5.937534145052   -0.894390122270
 H    1.782650418388   -5.937534145052    0.894390122270
