25

 C   -3.823485753059    8.020267076808    0.000000000000
 H   -4.534105753059    8.859987076808    0.000000000000
 H   -3.189935753059    8.099037076808    0.894390000000
 H   -3.189935753059    8.099037076808   -0.894390000000
 C   -4.585575753059    6.709577076808    0.000000000000
 H   -5.234875753059    6.632907076808   -0.893240000000
 H   -5.234875753059    6.632907076808    0.893240000000
 O   -3.656655753059    5.616397076808    0.000000000000
 C   -4.368495753059    4.387137076808    0.000000000000
 H   -5.007115753059    4.298017076808   -0.896750000000
 H   -5.007115753059    4.298017076808    0.896750000000
 H   -3.636185753059    3.562757076808    0.000000000000
CS    0.560714246941   -0.861222923192    0.000000000000
 O    2.415813019138   -3.710540130067    0.000000000000
 C    3.127653266855   -2.481270545423    0.000000000000
 H    3.766272978657   -2.392149800485    0.896752305054
 H    3.766272978657   -2.392149800485   -0.896752305054
 H    2.395343500680   -1.656889847405    0.000000000000
 C    3.344735663452   -4.803717345061    0.000000000000
 H    3.994029632750   -4.727043755325    0.893239500118
 H    3.994029632750   -4.727043755325   -0.893239500118
 C    2.582636801468   -6.114410347660    0.000000000000
 H    3.293258452431   -6.954128676435    0.000000000000
 H    1.949093750626   -6.193180829544   -0.894390122270
 H    1.949093750626   -6.193180829544    0.894390122270
