25

 C   -3.849387544128    8.060050629084    0.000000000000
 H   -4.560007544128    8.899770629084    0.000000000000
 H   -3.215837544128    8.138820629084    0.894390000000
 H   -3.215837544128    8.138820629084   -0.894390000000
 C   -4.611477544128    6.749360629084    0.000000000000
 H   -5.260777544128    6.672690629084   -0.893240000000
 H   -5.260777544128    6.672690629084    0.893240000000
 O   -3.682557544128    5.656180629084    0.000000000000
 C   -4.394397544128    4.426920629084    0.000000000000
 H   -5.033017544128    4.337800629084   -0.896750000000
 H   -5.033017544128    4.337800629084    0.896750000000
 H   -3.662087544128    3.602540629084    0.000000000000
CS    0.534812455872   -0.821439370916    0.000000000000
 O    2.499034685257   -3.838363472313    0.000000000000
 C    3.210874932974   -2.609093887669    0.000000000000
 H    3.849494644776   -2.519973142731    0.896752305054
 H    3.849494644776   -2.519973142731   -0.896752305054
 H    2.478565166800   -1.784713189651    0.000000000000
 C    3.427957329572   -4.931540687306    0.000000000000
 H    4.077251298869   -4.854867097571    0.893239500118
 H    4.077251298869   -4.854867097571   -0.893239500118
 C    2.665858467587   -6.242233689905    0.000000000000
 H    3.376480118551   -7.081952018681    0.000000000000
 H    2.032315416745   -6.321004171790   -0.894390122270
 H    2.032315416745   -6.321004171790    0.894390122270
