25

 C   -3.875289335196    8.099834181360    0.000000000000
 H   -4.585909335196    8.939554181360    0.000000000000
 H   -3.241739335196    8.178604181360    0.894390000000
 H   -3.241739335196    8.178604181360   -0.894390000000
 C   -4.637379335196    6.789144181360    0.000000000000
 H   -5.286679335196    6.712474181360   -0.893240000000
 H   -5.286679335196    6.712474181360    0.893240000000
 O   -3.708459335196    5.695964181360    0.000000000000
 C   -4.420299335196    4.466704181360    0.000000000000
 H   -5.058919335196    4.377584181360   -0.896750000000
 H   -5.058919335196    4.377584181360    0.896750000000
 H   -3.687989335196    3.642324181360    0.000000000000
CS    0.508910664804   -0.781655818640    0.000000000000
 O    2.582256351377   -3.966186814559    0.000000000000
 C    3.294096599093   -2.736917229915    0.000000000000
 H    3.932716310895   -2.647796484977    0.896752305054
 H    3.932716310895   -2.647796484977   -0.896752305054
 H    2.561786832919   -1.912536531896    0.000000000000
 C    3.511178995691   -5.059364029552    0.000000000000
 H    4.160472964988   -4.982690439816    0.893239500118
 H    4.160472964988   -4.982690439816   -0.893239500118
 C    2.749080133706   -6.370057032151    0.000000000000
 H    3.459701784670   -7.209775360927    0.000000000000
 H    2.115537082864   -6.448827514035   -0.894390122270
 H    2.115537082864   -6.448827514035    0.894390122270
