25

 C   -3.914142021800    8.159509509775    0.000000000000
 H   -4.624762021800    8.999229509775    0.000000000000
 H   -3.280592021800    8.238279509775    0.894390000000
 H   -3.280592021800    8.238279509775   -0.894390000000
 C   -4.676232021800    6.848819509775    0.000000000000
 H   -5.325532021800    6.772149509775   -0.893240000000
 H   -5.325532021800    6.772149509775    0.893240000000
 O   -3.747312021800    5.755639509775    0.000000000000
 C   -4.459152021800    4.526379509775    0.000000000000
 H   -5.097772021800    4.437259509775   -0.896750000000
 H   -5.097772021800    4.437259509775    0.896750000000
 H   -3.726842021800    3.701999509775    0.000000000000
CS    0.470057978200   -0.721980490225    0.000000000000
 O    2.707088850555   -4.157921827928    0.000000000000
 C    3.418929098272   -2.928652243284    0.000000000000
 H    4.057548810074   -2.839531498345    0.896752305054
 H    4.057548810074   -2.839531498345   -0.896752305054
 H    2.686619332098   -2.104271545265    0.000000000000
 C    3.636011494870   -5.251099042921    0.000000000000
 H    4.285305464167   -5.174425453185    0.893239500118
 H    4.285305464167   -5.174425453185   -0.893239500118
 C    2.873912632885   -6.561792045520    0.000000000000
 H    3.584534283849   -7.401510374295    0.000000000000
 H    2.240369582043   -6.640562527404   -0.894390122270
 H    2.240369582043   -6.640562527404    0.894390122270
