25

 C   -3.927092917334    8.179401285913    0.000000000000
 H   -4.637712917334    9.019121285913    0.000000000000
 H   -3.293542917334    8.258171285913    0.894390000000
 H   -3.293542917334    8.258171285913   -0.894390000000
 C   -4.689182917334    6.868711285913    0.000000000000
 H   -5.338482917334    6.792041285913   -0.893240000000
 H   -5.338482917334    6.792041285913    0.893240000000
 O   -3.760262917334    5.775531285913    0.000000000000
 C   -4.472102917334    4.546271285913    0.000000000000
 H   -5.110722917334    4.457151285913   -0.896750000000
 H   -5.110722917334    4.457151285913    0.896750000000
 H   -3.739792917334    3.721891285913    0.000000000000
CS    0.457107082666   -0.702088714087    0.000000000000
 O    2.748699683615   -4.221833499050    0.000000000000
 C    3.460539931332   -2.992563914406    0.000000000000
 H    4.099159643133   -2.903443169468    0.896752305054
 H    4.099159643133   -2.903443169468   -0.896752305054
 H    2.728230165157   -2.168183216388    0.000000000000
 C    3.677622327929   -5.315010714044    0.000000000000
 H    4.326916297226   -5.238337124308    0.893239500118
 H    4.326916297226   -5.238337124308   -0.893239500118
 C    2.915523465945   -6.625703716643    0.000000000000
 H    3.626145116908   -7.465422045418    0.000000000000
 H    2.281980415103   -6.704474198527   -0.894390122270
 H    2.281980415103   -6.704474198527    0.894390122270
