25

 C   -4.004798290541    8.298751942742    0.000000000000
 H   -4.715418290541    9.138471942742    0.000000000000
 H   -3.371248290541    8.377521942742    0.894390000000
 H   -3.371248290541    8.377521942742   -0.894390000000
 C   -4.766888290541    6.988061942742    0.000000000000
 H   -5.416188290541    6.911391942742   -0.893240000000
 H   -5.416188290541    6.911391942742    0.893240000000
 O   -3.837968290541    5.894881942742    0.000000000000
 C   -4.549808290541    4.665621942742    0.000000000000
 H   -5.188428290541    4.576501942742   -0.896750000000
 H   -5.188428290541    4.576501942742    0.896750000000
 H   -3.817498290541    3.841241942742    0.000000000000
CS    0.379401709459   -0.582738057258    0.000000000000
 O    2.998364681973   -4.605303525788    0.000000000000
 C    3.710204929689   -3.376033941144    0.000000000000
 H    4.348824641491   -3.286913196205    0.896752305054
 H    4.348824641491   -3.286913196205   -0.896752305054
 H    2.977895163515   -2.551653243125    0.000000000000
 C    3.927287326287   -5.698480740781    0.000000000000
 H    4.576581295584   -5.621807151045    0.893239500118
 H    4.576581295584   -5.621807151045   -0.893239500118
 C    3.165188464302   -7.009173743380    0.000000000000
 H    3.875810115266   -7.848892072156    0.000000000000
 H    2.531645413460   -7.087944225264   -0.894390122270
 H    2.531645413460   -7.087944225264    0.894390122270
