25

 C   -4.095454559282    8.437994375709    0.000000000000
 H   -4.806074559282    9.277714375709    0.000000000000
 H   -3.461904559282    8.516764375709    0.894390000000
 H   -3.461904559282    8.516764375709   -0.894390000000
 C   -4.857544559282    7.127304375709    0.000000000000
 H   -5.506844559282    7.050634375709   -0.893240000000
 H   -5.506844559282    7.050634375709    0.893240000000
 O   -3.928624559282    6.034124375709    0.000000000000
 C   -4.640464559282    4.804864375709    0.000000000000
 H   -5.279084559282    4.715744375709   -0.896750000000
 H   -5.279084559282    4.715744375709    0.896750000000
 H   -3.908154559282    3.980484375709    0.000000000000
CS    0.288745440718   -0.443495624291    0.000000000000
 O    3.289640513390   -5.052685223648    0.000000000000
 C    4.001480761106   -3.823415639004    0.000000000000
 H    4.640100472908   -3.734294894066    0.896752305054
 H    4.640100472908   -3.734294894066   -0.896752305054
 H    3.269170994932   -2.999034940985    0.000000000000
 C    4.218563157704   -6.145862438641    0.000000000000
 H    4.867857127001   -6.069188848905    0.893239500118
 H    4.867857127001   -6.069188848905   -0.893239500118
 C    3.456464295719   -7.456555441240    0.000000000000
 H    4.167085946683   -8.296273770016    0.000000000000
 H    2.822921244878   -7.535325923124   -0.894390122270
 H    2.822921244878   -7.535325923124    0.894390122270
