25

 C   -4.134307245885    8.497669704123    0.000000000000
 H   -4.844927245885    9.337389704123    0.000000000000
 H   -3.500757245885    8.576439704123    0.894390000000
 H   -3.500757245885    8.576439704123   -0.894390000000
 C   -4.896397245885    7.186979704123    0.000000000000
 H   -5.545697245885    7.110309704123   -0.893240000000
 H   -5.545697245885    7.110309704123    0.893240000000
 O   -3.967477245885    6.093799704123    0.000000000000
 C   -4.679317245885    4.864539704123    0.000000000000
 H   -5.317937245885    4.775419704123   -0.896750000000
 H   -5.317937245885    4.775419704123    0.896750000000
 H   -3.947007245885    4.040159704123    0.000000000000
CS    0.249892754115   -0.383820295877    0.000000000000
 O    3.414473012569   -5.244420237017    0.000000000000
 C    4.126313260285   -4.015150652373    0.000000000000
 H    4.764932972087   -3.926029907434    0.896752305054
 H    4.764932972087   -3.926029907434   -0.896752305054
 H    3.394003494111   -3.190769954354    0.000000000000
 C    4.343395656883   -6.337597452010    0.000000000000
 H    4.992689626180   -6.260923862274    0.893239500118
 H    4.992689626180   -6.260923862274   -0.893239500118
 C    3.581296794898   -7.648290454609    0.000000000000
 H    4.291918445862   -8.488008783384    0.000000000000
 H    2.947753744056   -7.727060936493   -0.894390122270
 H    2.947753744056   -7.727060936493    0.894390122270
