25

 C   -4.147258141419    8.517561480261    0.000000000000
 H   -4.857878141419    9.357281480261    0.000000000000
 H   -3.513708141419    8.596331480261    0.894390000000
 H   -3.513708141419    8.596331480261   -0.894390000000
 C   -4.909348141419    7.206871480261    0.000000000000
 H   -5.558648141419    7.130201480261   -0.893240000000
 H   -5.558648141419    7.130201480261    0.893240000000
 O   -3.980428141419    6.113691480261    0.000000000000
 C   -4.692268141419    4.884431480261    0.000000000000
 H   -5.330888141419    4.795311480261   -0.896750000000
 H   -5.330888141419    4.795311480261    0.896750000000
 H   -3.959958141419    4.060051480261    0.000000000000
CS    0.236941858581   -0.363928519739    0.000000000000
 O    3.456083845628   -5.308331908139    0.000000000000
 C    4.167924093345   -4.079062323495    0.000000000000
 H    4.806543805146   -3.989941578557    0.896752305054
 H    4.806543805146   -3.989941578557   -0.896752305054
 H    3.435614327170   -3.254681625477    0.000000000000
 C    4.385006489942   -6.401509123133    0.000000000000
 H    5.034300459239   -6.324835533397    0.893239500118
 H    5.034300459239   -6.324835533397   -0.893239500118
 C    3.622907627958   -7.712202125732    0.000000000000
 H    4.333529278921   -8.551920454507    0.000000000000
 H    2.989364577116   -7.790972607616   -0.894390122270
 H    2.989364577116   -7.790972607616    0.894390122270
