25

 C   -4.186110828023    8.577236808676    0.000000000000
 H   -4.896730828023    9.416956808676    0.000000000000
 H   -3.552560828023    8.656006808676    0.894390000000
 H   -3.552560828023    8.656006808676   -0.894390000000
 C   -4.948200828023    7.266546808676    0.000000000000
 H   -5.597500828023    7.189876808676   -0.893240000000
 H   -5.597500828023    7.189876808676    0.893240000000
 O   -4.019280828023    6.173366808676    0.000000000000
 C   -4.731120828023    4.944106808676    0.000000000000
 H   -5.369740828023    4.854986808676   -0.896750000000
 H   -5.369740828023    4.854986808676    0.896750000000
 H   -3.998810828023    4.119726808676    0.000000000000
CS    0.198089171977   -0.304253191324    0.000000000000
 O    3.580916344807   -5.500066921508    0.000000000000
 C    4.292756592523   -4.270797336864    0.000000000000
 H    4.931376304325   -4.181676591926    0.896752305054
 H    4.931376304325   -4.181676591926   -0.896752305054
 H    3.560446826349   -3.446416638845    0.000000000000
 C    4.509838989121   -6.593244136501    0.000000000000
 H    5.159132958418   -6.516570546766    0.893239500118
 H    5.159132958418   -6.516570546766   -0.893239500118
 C    3.747740127137   -7.903937139100    0.000000000000
 H    4.458361778100   -8.743655467876    0.000000000000
 H    3.114197076295   -7.982707620984   -0.894390122270
 H    3.114197076295   -7.982707620984    0.894390122270
