25

 C   -4.199061723557    8.597128584814    0.000000000000
 H   -4.909681723557    9.436848584814    0.000000000000
 H   -3.565511723557    8.675898584814    0.894390000000
 H   -3.565511723557    8.675898584814   -0.894390000000
 C   -4.961151723557    7.286438584814    0.000000000000
 H   -5.610451723557    7.209768584814   -0.893240000000
 H   -5.610451723557    7.209768584814    0.893240000000
 O   -4.032231723557    6.193258584814    0.000000000000
 C   -4.744071723557    4.963998584814    0.000000000000
 H   -5.382691723557    4.874878584814   -0.896750000000
 H   -5.382691723557    4.874878584814    0.896750000000
 H   -4.011761723557    4.139618584814    0.000000000000
CS    0.185138276443   -0.284361415186    0.000000000000
 O    3.622527177867   -5.563978592631    0.000000000000
 C    4.334367425583   -4.334709007987    0.000000000000
 H    4.972987137385   -4.245588263049    0.896752305054
 H    4.972987137385   -4.245588263049   -0.896752305054
 H    3.602057659409   -3.510328309968    0.000000000000
 C    4.551449822181   -6.657155807624    0.000000000000
 H    5.200743791478   -6.580482217888    0.893239500118
 H    5.200743791478   -6.580482217888   -0.893239500118
 C    3.789350960196   -7.967848810223    0.000000000000
 H    4.499972611160   -8.807567138999    0.000000000000
 H    3.155807909354   -8.046619292107   -0.894390122270
 H    3.155807909354   -8.046619292107    0.894390122270
