25

 C   -4.212012619092    8.617020360952    0.000000000000
 H   -4.922632619092    9.456740360952    0.000000000000
 H   -3.578462619092    8.695790360952    0.894390000000
 H   -3.578462619092    8.695790360952   -0.894390000000
 C   -4.974102619092    7.306330360952    0.000000000000
 H   -5.623402619092    7.229660360952   -0.893240000000
 H   -5.623402619092    7.229660360952    0.893240000000
 O   -4.045182619092    6.213150360952    0.000000000000
 C   -4.757022619092    4.983890360952    0.000000000000
 H   -5.395642619092    4.894770360952   -0.896750000000
 H   -5.395642619092    4.894770360952    0.896750000000
 H   -4.024712619092    4.159510360952    0.000000000000
CS    0.172187380908   -0.264469639048    0.000000000000
 O    3.664138010926   -5.627890263754    0.000000000000
 C    4.375978258643   -4.398620679110    0.000000000000
 H    5.014597970444   -4.309499934172    0.896752305054
 H    5.014597970444   -4.309499934172   -0.896752305054
 H    3.643668492468   -3.574239981091    0.000000000000
 C    4.593060655240   -6.721067478747    0.000000000000
 H    5.242354624537   -6.644393889011    0.893239500118
 H    5.242354624537   -6.644393889011   -0.893239500118
 C    3.830961793256   -8.031760481346    0.000000000000
 H    4.541583444219   -8.871478810122    0.000000000000
 H    3.197418742414   -8.110530963230   -0.894390122270
 H    3.197418742414   -8.110530963230    0.894390122270
