25

 C   -4.224963514626    8.636912137090    0.000000000000
 H   -4.935583514626    9.476632137090    0.000000000000
 H   -3.591413514626    8.715682137090    0.894390000000
 H   -3.591413514626    8.715682137090   -0.894390000000
 C   -4.987053514626    7.326222137090    0.000000000000
 H   -5.636353514626    7.249552137090   -0.893240000000
 H   -5.636353514626    7.249552137090    0.893240000000
 O   -4.058133514626    6.233042137090    0.000000000000
 C   -4.769973514626    5.003782137090    0.000000000000
 H   -5.408593514626    4.914662137090   -0.896750000000
 H   -5.408593514626    4.914662137090    0.896750000000
 H   -4.037663514626    4.179402137090    0.000000000000
CS    0.159236485374   -0.244577862910    0.000000000000
 O    3.705748843986   -5.691801934877    0.000000000000
 C    4.417589091702   -4.462532350233    0.000000000000
 H    5.056208803504   -4.373411605294    0.896752305054
 H    5.056208803504   -4.373411605294   -0.896752305054
 H    3.685279325528   -3.638151652214    0.000000000000
 C    4.634671488300   -6.784979149870    0.000000000000
 H    5.283965457597   -6.708305560134    0.893239500118
 H    5.283965457597   -6.708305560134   -0.893239500118
 C    3.872572626315   -8.095672152469    0.000000000000
 H    4.583194277279   -8.935390481245    0.000000000000
 H    3.239029575473   -8.174442634353   -0.894390122270
 H    3.239029575473   -8.174442634353    0.894390122270
