25

 C   -4.250865305695    8.676695689366    0.000000000000
 H   -4.961485305695    9.516415689366    0.000000000000
 H   -3.617315305695    8.755465689366    0.894390000000
 H   -3.617315305695    8.755465689366   -0.894390000000
 C   -5.012955305695    7.366005689366    0.000000000000
 H   -5.662255305695    7.289335689366   -0.893240000000
 H   -5.662255305695    7.289335689366    0.893240000000
 O   -4.084035305695    6.272825689366    0.000000000000
 C   -4.795875305695    5.043565689366    0.000000000000
 H   -5.434495305695    4.954445689366   -0.896750000000
 H   -5.434495305695    4.954445689366    0.896750000000
 H   -4.063565305695    4.219185689366    0.000000000000
CS    0.133334694305   -0.204794310634    0.000000000000
 O    3.788970510105   -5.819625277122    0.000000000000
 C    4.500810757821   -4.590355692478    0.000000000000
 H    5.139430469623   -4.501234947540    0.896752305054
 H    5.139430469623   -4.501234947540   -0.896752305054
 H    3.768500991647   -3.765974994460    0.000000000000
 C    4.717893154419   -6.912802492116    0.000000000000
 H    5.367187123716   -6.836128902380    0.893239500118
 H    5.367187123716   -6.836128902380   -0.893239500118
 C    3.955794292434   -8.223495494715    0.000000000000
 H    4.666415943398   -9.063213823490    0.000000000000
 H    3.322251241593   -8.302265976599   -0.894390122270
 H    3.322251241593   -8.302265976599    0.894390122270
