25

 C   -4.263816201229    8.696587465505    0.000000000000
 H   -4.974436201229    9.536307465505    0.000000000000
 H   -3.630266201229    8.775357465505    0.894390000000
 H   -3.630266201229    8.775357465505   -0.894390000000
 C   -5.025906201229    7.385897465505    0.000000000000
 H   -5.675206201229    7.309227465505   -0.893240000000
 H   -5.675206201229    7.309227465505    0.893240000000
 O   -4.096986201229    6.292717465505    0.000000000000
 C   -4.808826201229    5.063457465505    0.000000000000
 H   -5.447446201229    4.974337465505   -0.896750000000
 H   -5.447446201229    4.974337465505    0.896750000000
 H   -4.076516201229    4.239077465505    0.000000000000
CS    0.120383798771   -0.184902534495    0.000000000000
 O    3.830581343164   -5.883536948245    0.000000000000
 C    4.542421590881   -4.654267363601    0.000000000000
 H    5.181041302683   -4.565146618663    0.896752305054
 H    5.181041302683   -4.565146618663   -0.896752305054
 H    3.810111824707   -3.829886665583    0.000000000000
 C    4.759503987479   -6.976714163239    0.000000000000
 H    5.408797956776   -6.900040573503    0.893239500118
 H    5.408797956776   -6.900040573503   -0.893239500118
 C    3.997405125494   -8.287407165837    0.000000000000
 H    4.708026776458   -9.127125494613    0.000000000000
 H    3.363862074652   -8.366177647722   -0.894390122270
 H    3.363862074652   -8.366177647722    0.894390122270
