25

 C   -4.289717992298    8.736371017781    0.000000000000
 H   -5.000337992298    9.576091017781    0.000000000000
 H   -3.656167992298    8.815141017781    0.894390000000
 H   -3.656167992298    8.815141017781   -0.894390000000
 C   -5.051807992298    7.425681017781    0.000000000000
 H   -5.701107992298    7.349011017781   -0.893240000000
 H   -5.701107992298    7.349011017781    0.893240000000
 O   -4.122887992298    6.332501017781    0.000000000000
 C   -4.834727992298    5.103241017781    0.000000000000
 H   -5.473347992298    5.014121017781   -0.896750000000
 H   -5.473347992298    5.014121017781    0.896750000000
 H   -4.102417992298    4.278861017781    0.000000000000
CS    0.094482007702   -0.145118982219    0.000000000000
 O    3.913803009284   -6.011360290491    0.000000000000
 C    4.625643257000   -4.782090705847    0.000000000000
 H    5.264262968802   -4.692969960909    0.896752305054
 H    5.264262968802   -4.692969960909   -0.896752305054
 H    3.893333490826   -3.957710007828    0.000000000000
 C    4.842725653598   -7.104537505484    0.000000000000
 H    5.492019622895   -7.027863915749    0.893239500118
 H    5.492019622895   -7.027863915749   -0.893239500118
 C    4.080626791613   -8.415230508083    0.000000000000
 H    4.791248442577   -9.254948836859    0.000000000000
 H    3.447083740771   -8.494000989967   -0.894390122270
 H    3.447083740771   -8.494000989967    0.894390122270
