25

 C   -4.302668887833    8.756262793919    0.000000000000
 H   -5.013288887833    9.595982793919    0.000000000000
 H   -3.669118887833    8.835032793919    0.894390000000
 H   -3.669118887833    8.835032793919   -0.894390000000
 C   -5.064758887833    7.445572793919    0.000000000000
 H   -5.714058887833    7.368902793919   -0.893240000000
 H   -5.714058887833    7.368902793919    0.893240000000
 O   -4.135838887833    6.352392793919    0.000000000000
 C   -4.847678887833    5.123132793919    0.000000000000
 H   -5.486298887833    5.034012793919   -0.896750000000
 H   -5.486298887833    5.034012793919    0.896750000000
 H   -4.115368887833    4.298752793919    0.000000000000
CS    0.081531112167   -0.125227206081    0.000000000000
 O    3.955413842343   -6.075271961614    0.000000000000
 C    4.667254090060   -4.846002376970    0.000000000000
 H    5.305873801862   -4.756881632032    0.896752305054
 H    5.305873801862   -4.756881632032   -0.896752305054
 H    3.934944323886   -4.021621678951    0.000000000000
 C    4.884336486657   -7.168449176607    0.000000000000
 H    5.533630455955   -7.091775586871    0.893239500118
 H    5.533630455955   -7.091775586871   -0.893239500118
 C    4.122237624673   -8.479142179206    0.000000000000
 H    4.832859275636   -9.318860507982    0.000000000000
 H    3.488694573831   -8.557912661090   -0.894390122270
 H    3.488694573831   -8.557912661090    0.894390122270
