25

 C   -4.328570678901    8.796046346195    0.000000000000
 H   -5.039190678901    9.635766346195    0.000000000000
 H   -3.695020678901    8.874816346195    0.894390000000
 H   -3.695020678901    8.874816346195   -0.894390000000
 C   -5.090660678901    7.485356346195    0.000000000000
 H   -5.739960678901    7.408686346195   -0.893240000000
 H   -5.739960678901    7.408686346195    0.893240000000
 O   -4.161740678901    6.392176346195    0.000000000000
 C   -4.873580678901    5.162916346195    0.000000000000
 H   -5.512200678901    5.073796346195   -0.896750000000
 H   -5.512200678901    5.073796346195    0.896750000000
 H   -4.141270678901    4.338536346195    0.000000000000
CS    0.055629321099   -0.085443653805    0.000000000000
 O    4.038635508462   -6.203095303860    0.000000000000
 C    4.750475756179   -4.973825719216    0.000000000000
 H    5.389095467981   -4.884704974277    0.896752305054
 H    5.389095467981   -4.884704974277   -0.896752305054
 H    4.018165990005   -4.149445021197    0.000000000000
 C    4.967558152777   -7.296272518853    0.000000000000
 H    5.616852122074   -7.219598929117    0.893239500118
 H    5.616852122074   -7.219598929117   -0.893239500118
 C    4.205459290792   -8.606965521452    0.000000000000
 H    4.916080941756   -9.446683850228    0.000000000000
 H    3.571916239950   -8.685736003336   -0.894390122270
 H    3.571916239950   -8.685736003336    0.894390122270
