25

 C   -4.341521574436    8.815938122333    0.000000000000
 H   -5.052141574436    9.655658122333    0.000000000000
 H   -3.707971574436    8.894708122333    0.894390000000
 H   -3.707971574436    8.894708122333   -0.894390000000
 C   -5.103611574436    7.505248122333    0.000000000000
 H   -5.752911574436    7.428578122333   -0.893240000000
 H   -5.752911574436    7.428578122333    0.893240000000
 O   -4.174691574436    6.412068122333    0.000000000000
 C   -4.886531574436    5.182808122333    0.000000000000
 H   -5.525151574436    5.093688122333   -0.896750000000
 H   -5.525151574436    5.093688122333    0.896750000000
 H   -4.154221574436    4.358428122333    0.000000000000
CS    0.042678425564   -0.065551877667    0.000000000000
 O    4.080246341522   -6.267006974983    0.000000000000
 C    4.792086589239   -5.037737390339    0.000000000000
 H    5.430706301040   -4.948616645400    0.896752305054
 H    5.430706301040   -4.948616645400   -0.896752305054
 H    4.059776823064   -4.213356692320    0.000000000000
 C    5.009168985836   -7.360184189976    0.000000000000
 H    5.658462955133   -7.283510600240    0.893239500118
 H    5.658462955133   -7.283510600240   -0.893239500118
 C    4.247070123852   -8.670877192575    0.000000000000
 H    4.957691774815   -9.510595521350    0.000000000000
 H    3.613527073010   -8.749647674459   -0.894390122270
 H    3.613527073010   -8.749647674459    0.894390122270
