25

 C   -4.354472469970    8.835829898472    0.000000000000
 H   -5.065092469970    9.675549898472    0.000000000000
 H   -3.720922469970    8.914599898472    0.894390000000
 H   -3.720922469970    8.914599898472   -0.894390000000
 C   -5.116562469970    7.525139898472    0.000000000000
 H   -5.765862469970    7.448469898472   -0.893240000000
 H   -5.765862469970    7.448469898472    0.893240000000
 O   -4.187642469970    6.431959898472    0.000000000000
 C   -4.899482469970    5.202699898472    0.000000000000
 H   -5.538102469970    5.113579898472   -0.896750000000
 H   -5.538102469970    5.113579898472    0.896750000000
 H   -4.167172469970    4.378319898472    0.000000000000
CS    0.029727530030   -0.045660101528    0.000000000000
 O    4.121857174582   -6.330918646105    0.000000000000
 C    4.833697422298   -5.101649061461    0.000000000000
 H    5.472317134100   -5.012528316523    0.896752305054
 H    5.472317134100   -5.012528316523   -0.896752305054
 H    4.101387656124   -4.277268363443    0.000000000000
 C    5.050779818896   -7.424095861099    0.000000000000
 H    5.700073788193   -7.347422271363    0.893239500118
 H    5.700073788193   -7.347422271363   -0.893239500118
 C    4.288680956911   -8.734788863698    0.000000000000
 H    4.999302607875   -9.574507192473    0.000000000000
 H    3.655137906069   -8.813559345582   -0.894390122270
 H    3.655137906069   -8.813559345582    0.894390122270
