25

 C   -4.432177843177    8.955180555300    0.000000000000
 H   -5.142797843177    9.794900555300    0.000000000000
 H   -3.798627843177    9.033950555300    0.894390000000
 H   -3.798627843177    9.033950555300   -0.894390000000
 C   -5.194267843177    7.644490555300    0.000000000000
 H   -5.843567843177    7.567820555300   -0.893240000000
 H   -5.843567843177    7.567820555300    0.893240000000
 O   -4.265347843177    6.551310555300    0.000000000000
 C   -4.977187843177    5.322050555300    0.000000000000
 H   -5.615807843177    5.232930555300   -0.896750000000
 H   -5.615807843177    5.232930555300    0.896750000000
 H   -4.244877843177    4.497670555300    0.000000000000
CS   -0.047977843177    0.073690555300    0.000000000000
 O    4.371522172939   -6.714388672843    0.000000000000
 C    5.083362420656   -5.485119088199    0.000000000000
 H    5.721982132458   -5.395998343260    0.896752305054
 H    5.721982132458   -5.395998343260   -0.896752305054
 H    4.351052654481   -4.660738390180    0.000000000000
 C    5.300444817253   -7.807565887836    0.000000000000
 H    5.949738786551   -7.730892298100    0.893239500118
 H    5.949738786551   -7.730892298100   -0.893239500118
 C    4.538345955269   -9.118258890435    0.000000000000
 H    5.248967606232   -9.957977219211    0.000000000000
 H    3.904802904427   -9.197029372319   -0.894390122270
 H    3.904802904427   -9.197029372319    0.894390122270
