25

 C   -4.445128738711    8.975072331439    0.000000000000
 H   -5.155748738711    9.814792331439    0.000000000000
 H   -3.811578738711    9.053842331439    0.894390000000
 H   -3.811578738711    9.053842331439   -0.894390000000
 C   -5.207218738711    7.664382331439    0.000000000000
 H   -5.856518738711    7.587712331439   -0.893240000000
 H   -5.856518738711    7.587712331439    0.893240000000
 O   -4.278298738711    6.571202331439    0.000000000000
 C   -4.990138738711    5.341942331439    0.000000000000
 H   -5.628758738711    5.252822331439   -0.896750000000
 H   -5.628758738711    5.252822331439    0.896750000000
 H   -4.257828738711    4.517562331439    0.000000000000
CS   -0.060928738711    0.093582331439    0.000000000000
 O    4.413133005999   -6.778300343966    0.000000000000
 C    5.124973253715   -5.549030759322    0.000000000000
 H    5.763592965517   -5.459910014383    0.896752305054
 H    5.763592965517   -5.459910014383   -0.896752305054
 H    4.392663487541   -4.724650061303    0.000000000000
 C    5.342055650313   -7.871477558959    0.000000000000
 H    5.991349619610   -7.794803969223    0.893239500118
 H    5.991349619610   -7.794803969223   -0.893239500118
 C    4.579956788328   -9.182170561558    0.000000000000
 H    5.290578439292  -10.021888890333    0.000000000000
 H    3.946413737487   -9.260941043442   -0.894390122270
 H    3.946413737487   -9.260941043442    0.894390122270
