25

 C   -4.458079634246    8.994964107577    0.000000000000
 H   -5.168699634246    9.834684107577    0.000000000000
 H   -3.824529634246    9.073734107577    0.894390000000
 H   -3.824529634246    9.073734107577   -0.894390000000
 C   -5.220169634246    7.684274107577    0.000000000000
 H   -5.869469634246    7.607604107577   -0.893240000000
 H   -5.869469634246    7.607604107577    0.893240000000
 O   -4.291249634246    6.591094107577    0.000000000000
 C   -5.003089634246    5.361834107577    0.000000000000
 H   -5.641709634246    5.272714107577   -0.896750000000
 H   -5.641709634246    5.272714107577    0.896750000000
 H   -4.270779634246    4.537454107577    0.000000000000
CS   -0.073879634246    0.113474107577    0.000000000000
 O    4.454743839058   -6.842212015088    0.000000000000
 C    5.166584086775   -5.612942430444    0.000000000000
 H    5.805203798577   -5.523821685506    0.896752305054
 H    5.805203798577   -5.523821685506   -0.896752305054
 H    4.434274320601   -4.788561732426    0.000000000000
 C    5.383666483373   -7.935389230082    0.000000000000
 H    6.032960452670   -7.858715640346    0.893239500118
 H    6.032960452670   -7.858715640346   -0.893239500118
 C    4.621567621388   -9.246082232681    0.000000000000
 H    5.332189272352  -10.085800561456    0.000000000000
 H    3.988024570546   -9.324852714565   -0.894390122270
 H    3.988024570546   -9.324852714565    0.894390122270
