25

 C   -4.483981425315    9.034747659853    0.000000000000
 H   -5.194601425315    9.874467659853    0.000000000000
 H   -3.850431425315    9.113517659853    0.894390000000
 H   -3.850431425315    9.113517659853   -0.894390000000
 C   -5.246071425315    7.724057659853    0.000000000000
 H   -5.895371425315    7.647387659853   -0.893240000000
 H   -5.895371425315    7.647387659853    0.893240000000
 O   -4.317151425315    6.630877659853    0.000000000000
 C   -5.028991425315    5.401617659853    0.000000000000
 H   -5.667611425315    5.312497659853   -0.896750000000
 H   -5.667611425315    5.312497659853    0.896750000000
 H   -4.296681425315    4.577237659853    0.000000000000
CS   -0.099781425315    0.153257659853    0.000000000000
 O    4.537965505178   -6.970035357334    0.000000000000
 C    5.249805752894   -5.740765772690    0.000000000000
 H    5.888425464696   -5.651645027752    0.896752305054
 H    5.888425464696   -5.651645027752   -0.896752305054
 H    4.517495986720   -4.916385074672    0.000000000000
 C    5.466888149492   -8.063212572327    0.000000000000
 H    6.116182118789   -7.986538982592    0.893239500118
 H    6.116182118789   -7.986538982592   -0.893239500118
 C    4.704789287507   -9.373905574926    0.000000000000
 H    5.415410938471  -10.213623903702    0.000000000000
 H    4.071246236665   -9.452676056811   -0.894390122270
 H    4.071246236665   -9.452676056811    0.894390122270
