25

 C   -4.496932320849    9.054639435991    0.000000000000
 H   -5.207552320849    9.894359435991    0.000000000000
 H   -3.863382320849    9.133409435991    0.894390000000
 H   -3.863382320849    9.133409435991   -0.894390000000
 C   -5.259022320849    7.743949435991    0.000000000000
 H   -5.908322320849    7.667279435991   -0.893240000000
 H   -5.908322320849    7.667279435991    0.893240000000
 O   -4.330102320849    6.650769435991    0.000000000000
 C   -5.041942320849    5.421509435991    0.000000000000
 H   -5.680562320849    5.332389435991   -0.896750000000
 H   -5.680562320849    5.332389435991    0.896750000000
 H   -4.309632320849    4.597129435991    0.000000000000
CS   -0.112732320849    0.173149435991    0.000000000000
 O    4.579576338237   -7.033947028457    0.000000000000
 C    5.291416585954   -5.804677443813    0.000000000000
 H    5.930036297755   -5.715556698875    0.896752305054
 H    5.930036297755   -5.715556698875   -0.896752305054
 H    4.559106819779   -4.980296745794    0.000000000000
 C    5.508498982551   -8.127124243450    0.000000000000
 H    6.157792951849   -8.050450653715    0.893239500118
 H    6.157792951849   -8.050450653715   -0.893239500118
 C    4.746400120567   -9.437817246049    0.000000000000
 H    5.457021771530  -10.277535574825    0.000000000000
 H    4.112857069725   -9.516587727934   -0.894390122270
 H    4.112857069725   -9.516587727934    0.894390122270
