25

 C   -4.535785007452    9.114314764406    0.000000000000
 H   -5.246405007452    9.954034764406    0.000000000000
 H   -3.902235007452    9.193084764406    0.894390000000
 H   -3.902235007452    9.193084764406   -0.894390000000
 C   -5.297875007452    7.803624764406    0.000000000000
 H   -5.947175007452    7.726954764406   -0.893240000000
 H   -5.947175007452    7.726954764406    0.893240000000
 O   -4.368955007452    6.710444764406    0.000000000000
 C   -5.080795007452    5.481184764406    0.000000000000
 H   -5.719415007452    5.392064764406   -0.896750000000
 H   -5.719415007452    5.392064764406    0.896750000000
 H   -4.348485007452    4.656804764406    0.000000000000
CS   -0.151585007452    0.232824764406    0.000000000000
 O    4.704408837416   -7.225682041826    0.000000000000
 C    5.416249085133   -5.996412457182    0.000000000000
 H    6.054868796934   -5.907291712244    0.896752305054
 H    6.054868796934   -5.907291712244   -0.896752305054
 H    4.683939318958   -5.172031759163    0.000000000000
 C    5.633331481730   -8.318859256819    0.000000000000
 H    6.282625451027   -8.242185667083    0.893239500118
 H    6.282625451027   -8.242185667083   -0.893239500118
 C    4.871232619746   -9.629552259418    0.000000000000
 H    5.581854270709  -10.469270588194    0.000000000000
 H    4.237689568904   -9.708322741302   -0.894390122270
 H    4.237689568904   -9.708322741302    0.894390122270
