25

 C   -4.548735902987    9.134206540544    0.000000000000
 H   -5.259355902987    9.973926540544    0.000000000000
 H   -3.915185902987    9.212976540544    0.894390000000
 H   -3.915185902987    9.212976540544   -0.894390000000
 C   -5.310825902987    7.823516540544    0.000000000000
 H   -5.960125902987    7.746846540544   -0.893240000000
 H   -5.960125902987    7.746846540544    0.893240000000
 O   -4.381905902987    6.730336540544    0.000000000000
 C   -5.093745902987    5.501076540544    0.000000000000
 H   -5.732365902987    5.411956540544   -0.896750000000
 H   -5.732365902987    5.411956540544    0.896750000000
 H   -4.361435902987    4.676696540544    0.000000000000
CS   -0.164535902987    0.252716540544    0.000000000000
 O    4.746019670476   -7.289593712949    0.000000000000
 C    5.457859918192   -6.060324128305    0.000000000000
 H    6.096479629994   -5.971203383366    0.896752305054
 H    6.096479629994   -5.971203383366   -0.896752305054
 H    4.725550152018   -5.235943430286    0.000000000000
 C    5.674942314790   -8.382770927942    0.000000000000
 H    6.324236284087   -8.306097338206    0.893239500118
 H    6.324236284087   -8.306097338206   -0.893239500118
 C    4.912843452805   -9.693463930541    0.000000000000
 H    5.623465103769  -10.533182259317    0.000000000000
 H    4.279300401963   -9.772234412425   -0.894390122270
 H    4.279300401963   -9.772234412425    0.894390122270
