25

 C   -4.600539485125    9.213773645096    0.000000000000
 H   -5.311159485125   10.053493645096    0.000000000000
 H   -3.966989485125    9.292543645096    0.894390000000
 H   -3.966989485125    9.292543645096   -0.894390000000
 C   -5.362629485125    7.903083645096    0.000000000000
 H   -6.011929485125    7.826413645096   -0.893240000000
 H   -6.011929485125    7.826413645096    0.893240000000
 O   -4.433709485125    6.809903645096    0.000000000000
 C   -5.145549485125    5.580643645096    0.000000000000
 H   -5.784169485125    5.491523645096   -0.896750000000
 H   -5.784169485125    5.491523645096    0.896750000000
 H   -4.413239485125    4.756263645096    0.000000000000
CS   -0.216339485125    0.332283645096    0.000000000000
 O    4.912463002714   -7.545240397440    0.000000000000
 C    5.624303250431   -6.315970812796    0.000000000000
 H    6.262922962232   -6.226850067858    0.896752305054
 H    6.262922962232   -6.226850067858   -0.896752305054
 H    4.891993484256   -5.491590114778    0.000000000000
 C    5.841385647028   -8.638417612433    0.000000000000
 H    6.490679616325   -8.561744022698    0.893239500118
 H    6.490679616325   -8.561744022698   -0.893239500118
 C    5.079286785044   -9.949110615032    0.000000000000
 H    5.789908436007  -10.788828943808    0.000000000000
 H    4.445743734202  -10.027881096917   -0.894390122270
 H    4.445743734202  -10.027881096917    0.894390122270
