25

 C   -4.613490380659    9.233665421235    0.000000000000
 H   -5.324110380659   10.073385421235    0.000000000000
 H   -3.979940380659    9.312435421235    0.894390000000
 H   -3.979940380659    9.312435421235   -0.894390000000
 C   -5.375580380659    7.922975421235    0.000000000000
 H   -6.024880380659    7.846305421235   -0.893240000000
 H   -6.024880380659    7.846305421235    0.893240000000
 O   -4.446660380659    6.829795421235    0.000000000000
 C   -5.158500380659    5.600535421235    0.000000000000
 H   -5.797120380659    5.511415421235   -0.896750000000
 H   -5.797120380659    5.511415421235    0.896750000000
 H   -4.426190380659    4.776155421235    0.000000000000
CS   -0.229290380659    0.352175421235    0.000000000000
 O    4.954073835774   -7.609152068563    0.000000000000
 C    5.665914083490   -6.379882483919    0.000000000000
 H    6.304533795292   -6.290761738981    0.896752305054
 H    6.304533795292   -6.290761738981   -0.896752305054
 H    4.933604317316   -5.555501785900    0.000000000000
 C    5.882996480088   -8.702329283556    0.000000000000
 H    6.532290449385   -8.625655693821    0.893239500118
 H    6.532290449385   -8.625655693821   -0.893239500118
 C    5.120897618103  -10.013022286155    0.000000000000
 H    5.831519269067  -10.852740614931    0.000000000000
 H    4.487354567261  -10.091792768039   -0.894390122270
 H    4.487354567261  -10.091792768039    0.894390122270
