25

 C   -4.652343067262    9.293340749649    0.000000000000
 H   -5.362963067262   10.133060749649    0.000000000000
 H   -4.018793067262    9.372110749649    0.894390000000
 H   -4.018793067262    9.372110749649   -0.894390000000
 C   -5.414433067262    7.982650749649    0.000000000000
 H   -6.063733067262    7.905980749649   -0.893240000000
 H   -6.063733067262    7.905980749649    0.893240000000
 O   -4.485513067262    6.889470749649    0.000000000000
 C   -5.197353067262    5.660210749649    0.000000000000
 H   -5.835973067262    5.571090749649   -0.896750000000
 H   -5.835973067262    5.571090749649    0.896750000000
 H   -4.465043067262    4.835830749649    0.000000000000
CS   -0.268143067262    0.411850749649    0.000000000000
 O    5.078906334952   -7.800887081932    0.000000000000
 C    5.790746582669   -6.571617497288    0.000000000000
 H    6.429366294471   -6.482496752349    0.896752305054
 H    6.429366294471   -6.482496752349   -0.896752305054
 H    5.058436816495   -5.747236799269    0.000000000000
 C    6.007828979267   -8.894064296925    0.000000000000
 H    6.657122948564   -8.817390707189    0.893239500118
 H    6.657122948564   -8.817390707189   -0.893239500118
 C    5.245730117282  -10.204757299524    0.000000000000
 H    5.956351768245  -11.044475628300    0.000000000000
 H    4.612187066440  -10.283527781408   -0.894390122270
 H    4.612187066440  -10.283527781408    0.894390122270
