25

 C   -4.665293962797    9.313232525787    0.000000000000
 H   -5.375913962797   10.152952525787    0.000000000000
 H   -4.031743962797    9.392002525787    0.894390000000
 H   -4.031743962797    9.392002525787   -0.894390000000
 C   -5.427383962797    8.002542525787    0.000000000000
 H   -6.076683962797    7.925872525787   -0.893240000000
 H   -6.076683962797    7.925872525787    0.893240000000
 O   -4.498463962797    6.909362525787    0.000000000000
 C   -5.210303962797    5.680102525787    0.000000000000
 H   -5.848923962797    5.590982525787   -0.896750000000
 H   -5.848923962797    5.590982525787    0.896750000000
 H   -4.477993962797    4.855722525787    0.000000000000
CS   -0.281093962797    0.431742525787    0.000000000000
 O    5.120517168012   -7.864798753055    0.000000000000
 C    5.832357415729   -6.635529168411    0.000000000000
 H    6.470977127530   -6.546408423472    0.896752305054
 H    6.470977127530   -6.546408423472   -0.896752305054
 H    5.100047649554   -5.811148470392    0.000000000000
 C    6.049439812326   -8.957975968048    0.000000000000
 H    6.698733781623   -8.881302378312    0.893239500118
 H    6.698733781623   -8.881302378312   -0.893239500118
 C    5.287340950342  -10.268668970647    0.000000000000
 H    5.997962601305  -11.108387299422    0.000000000000
 H    4.653797899500  -10.347439452531   -0.894390122270
 H    4.653797899500  -10.347439452531    0.894390122270
