19

 H    6.979161821870    1.297330012904   -0.899480000000
 H    5.809511821870    2.313280012904    0.000000000000
 H    6.979161821870    1.297330012904    0.899480000000
 C    6.350291821870    1.356720012904    0.000000000000
 S    5.133891821870    0.000000012904    0.000000000000
 C    6.350291821870   -1.356719987096    0.000000000000
 H    6.979161821870   -1.297329987096    0.899480000000
 H    5.809511821870   -2.313279987096    0.000000000000
 H    6.979161821870   -1.297329987096   -0.899480000000
CS   -1.315278178130    0.000000012904    0.000000000000
 S   -2.315278178130    0.000000012904    0.000000000000
 C   -3.531679291400   -1.356713604827    0.000000000000
 H   -4.160545908391   -1.297324943213    0.899480149478
 H   -2.990897089895   -2.313271996215    0.000000000000
 H   -4.160545908391   -1.297324943213   -0.899480149478
 C   -3.531679528191    1.356713418333    0.000000000000
 H   -4.160546134817    1.297324646962   -0.899480149478
 H   -2.990897493637    2.313271904105    0.000000000000
 H   -4.160546134817    1.297324646962    0.899480149478
