19

 H    7.003299043729    1.297330012904   -0.899480000000
 H    5.833649043729    2.313280012904    0.000000000000
 H    7.003299043729    1.297330012904    0.899480000000
 C    6.374429043729    1.356720012904    0.000000000000
 S    5.158029043729    0.000000012904    0.000000000000
 C    6.374429043729   -1.356719987096    0.000000000000
 H    7.003299043729   -1.297329987096    0.899480000000
 H    5.833649043729   -2.313279987096    0.000000000000
 H    7.003299043729   -1.297329987096   -0.899480000000
CS   -1.291140956271    0.000000012904    0.000000000000
 S   -2.391140956271    0.000000012904    0.000000000000
 C   -3.607542069541   -1.356713604827    0.000000000000
 H   -4.236408686532   -1.297324943213    0.899480149478
 H   -3.066759868036   -2.313271996215    0.000000000000
 H   -4.236408686532   -1.297324943213   -0.899480149478
 C   -3.607542306332    1.356713418333    0.000000000000
 H   -4.236408912958    1.297324646962   -0.899480149478
 H   -3.066760271778    2.313271904105    0.000000000000
 H   -4.236408912958    1.297324646962    0.899480149478
