19

 H    7.075710709307    1.297330012904   -0.899480000000
 H    5.906060709307    2.313280012904    0.000000000000
 H    7.075710709307    1.297330012904    0.899480000000
 C    6.446840709307    1.356720012904    0.000000000000
 S    5.230440709307    0.000000012904    0.000000000000
 C    6.446840709307   -1.356719987096    0.000000000000
 H    7.075710709307   -1.297329987096    0.899480000000
 H    5.906060709307   -2.313279987096    0.000000000000
 H    7.075710709307   -1.297329987096   -0.899480000000
CS   -1.218729290693    0.000000012904    0.000000000000
 S   -2.618729290693    0.000000012904    0.000000000000
 C   -3.835130403963   -1.356713604827    0.000000000000
 H   -4.463997020954   -1.297324943213    0.899480149478
 H   -3.294348202458   -2.313271996215    0.000000000000
 H   -4.463997020954   -1.297324943213   -0.899480149478
 C   -3.835130640754    1.356713418333    0.000000000000
 H   -4.463997247380    1.297324646962   -0.899480149478
 H   -3.294348606200    2.313271904105    0.000000000000
 H   -4.463997247380    1.297324646962    0.899480149478
