19

 H    7.268808484181    1.297330012904   -0.899480000000
 H    6.099158484181    2.313280012904    0.000000000000
 H    7.268808484181    1.297330012904    0.899480000000
 C    6.639938484181    1.356720012904    0.000000000000
 S    5.423538484181    0.000000012904    0.000000000000
 C    6.639938484181   -1.356719987096    0.000000000000
 H    7.268808484181   -1.297329987096    0.899480000000
 H    6.099158484181   -2.313279987096    0.000000000000
 H    7.268808484181   -1.297329987096   -0.899480000000
CS   -1.025631515819    0.000000012904    0.000000000000
 S   -3.225631515819    0.000000012904    0.000000000000
 C   -4.442032629089   -1.356713604827    0.000000000000
 H   -5.070899246081   -1.297324943213    0.899480149478
 H   -3.901250427584   -2.313271996215    0.000000000000
 H   -5.070899246081   -1.297324943213   -0.899480149478
 C   -4.442032865880    1.356713418333    0.000000000000
 H   -5.070899472506    1.297324646962   -0.899480149478
 H   -3.901250831326    2.313271904105    0.000000000000
 H   -5.070899472506    1.297324646962    0.899480149478
