19

 H    7.389494593477    1.297330012904   -0.899480000000
 H    6.219844593477    2.313280012904    0.000000000000
 H    7.389494593477    1.297330012904    0.899480000000
 C    6.760624593477    1.356720012904    0.000000000000
 S    5.544224593477    0.000000012904    0.000000000000
 C    6.760624593477   -1.356719987096    0.000000000000
 H    7.389494593477   -1.297329987096    0.899480000000
 H    6.219844593477   -2.313279987096    0.000000000000
 H    7.389494593477   -1.297329987096   -0.899480000000
CS   -0.904945406523    0.000000012904    0.000000000000
 S   -3.604945406523    0.000000012904    0.000000000000
 C   -4.821346519793   -1.356713604827    0.000000000000
 H   -5.450213136784   -1.297324943213    0.899480149478
 H   -4.280564318288   -2.313271996215    0.000000000000
 H   -5.450213136784   -1.297324943213   -0.899480149478
 C   -4.821346756584    1.356713418333    0.000000000000
 H   -5.450213363210    1.297324646962   -0.899480149478
 H   -4.280564722030    2.313271904105    0.000000000000
 H   -5.450213363210    1.297324646962    0.899480149478
