19

 H    7.437769037195    1.297330012904   -0.899480000000
 H    6.268119037195    2.313280012904    0.000000000000
 H    7.437769037195    1.297330012904    0.899480000000
 C    6.808899037195    1.356720012904    0.000000000000
 S    5.592499037195    0.000000012904    0.000000000000
 C    6.808899037195   -1.356719987096    0.000000000000
 H    7.437769037195   -1.297329987096    0.899480000000
 H    6.268119037195   -2.313279987096    0.000000000000
 H    7.437769037195   -1.297329987096   -0.899480000000
CS   -0.856670962805    0.000000012904    0.000000000000
 S   -3.756670962805    0.000000012904    0.000000000000
 C   -4.973072076075   -1.356713604827    0.000000000000
 H   -5.601938693066   -1.297324943213    0.899480149478
 H   -4.432289874570   -2.313271996215    0.000000000000
 H   -5.601938693066   -1.297324943213   -0.899480149478
 C   -4.973072312866    1.356713418333    0.000000000000
 H   -5.601938919492    1.297324646962   -0.899480149478
 H   -4.432290278312    2.313271904105    0.000000000000
 H   -5.601938919492    1.297324646962    0.899480149478
