19

 H    7.461906259054    1.297330012904   -0.899480000000
 H    6.292256259054    2.313280012904    0.000000000000
 H    7.461906259054    1.297330012904    0.899480000000
 C    6.833036259054    1.356720012904    0.000000000000
 S    5.616636259054    0.000000012904    0.000000000000
 C    6.833036259054   -1.356719987096    0.000000000000
 H    7.461906259054   -1.297329987096    0.899480000000
 H    6.292256259054   -2.313279987096    0.000000000000
 H    7.461906259054   -1.297329987096   -0.899480000000
CS   -0.832533740946    0.000000012904    0.000000000000
 S   -3.832533740946    0.000000012904    0.000000000000
 C   -5.048934854215   -1.356713604827    0.000000000000
 H   -5.677801471207   -1.297324943213    0.899480149478
 H   -4.508152652710   -2.313271996215    0.000000000000
 H   -5.677801471207   -1.297324943213   -0.899480149478
 C   -5.048935091007    1.356713418333    0.000000000000
 H   -5.677801697633    1.297324646962   -0.899480149478
 H   -4.508153056452    2.313271904105    0.000000000000
 H   -5.677801697633    1.297324646962    0.899480149478
