19

 H    7.486043480914    1.297330012904   -0.899480000000
 H    6.316393480914    2.313280012904    0.000000000000
 H    7.486043480914    1.297330012904    0.899480000000
 C    6.857173480914    1.356720012904    0.000000000000
 S    5.640773480914    0.000000012904    0.000000000000
 C    6.857173480914   -1.356719987096    0.000000000000
 H    7.486043480914   -1.297329987096    0.899480000000
 H    6.316393480914   -2.313279987096    0.000000000000
 H    7.486043480914   -1.297329987096   -0.899480000000
CS   -0.808396519086    0.000000012904    0.000000000000
 S   -3.908396519086    0.000000012904    0.000000000000
 C   -5.124797632356   -1.356713604827    0.000000000000
 H   -5.753664249347   -1.297324943213    0.899480149478
 H   -4.584015430851   -2.313271996215    0.000000000000
 H   -5.753664249347   -1.297324943213   -0.899480149478
 C   -5.124797869147    1.356713418333    0.000000000000
 H   -5.753664475773    1.297324646961   -0.899480149478
 H   -4.584015834593    2.313271904105    0.000000000000
 H   -5.753664475773    1.297324646961    0.899480149478
