19

 H    7.630866812069    1.297330012904   -0.899480000000
 H    6.461216812069    2.313280012904    0.000000000000
 H    7.630866812069    1.297330012904    0.899480000000
 C    7.001996812069    1.356720012904    0.000000000000
 S    5.785596812069    0.000000012904    0.000000000000
 C    7.001996812069   -1.356719987096    0.000000000000
 H    7.630866812069   -1.297329987096    0.899480000000
 H    6.461216812069   -2.313279987096    0.000000000000
 H    7.630866812069   -1.297329987096   -0.899480000000
CS   -0.663573187931    0.000000012904    0.000000000000
 S   -4.363573187931    0.000000012904    0.000000000000
 C   -5.579974301201   -1.356713604827    0.000000000000
 H   -6.208840918192   -1.297324943213    0.899480149478
 H   -5.039192099696   -2.313271996215    0.000000000000
 H   -6.208840918192   -1.297324943213   -0.899480149478
 C   -5.579974537992    1.356713418333    0.000000000000
 H   -6.208841144618    1.297324646962   -0.899480149478
 H   -5.039192503438    2.313271904105    0.000000000000
 H   -6.208841144618    1.297324646962    0.899480149478
