19

 H    7.655004033928    1.297330012904   -0.899480000000
 H    6.485354033928    2.313280012904    0.000000000000
 H    7.655004033928    1.297330012904    0.899480000000
 C    7.026134033928    1.356720012904    0.000000000000
 S    5.809734033928    0.000000012904    0.000000000000
 C    7.026134033928   -1.356719987096    0.000000000000
 H    7.655004033928   -1.297329987096    0.899480000000
 H    6.485354033928   -2.313279987096    0.000000000000
 H    7.655004033928   -1.297329987096   -0.899480000000
CS   -0.639435966072    0.000000012904    0.000000000000
 S   -4.439435966072    0.000000012904    0.000000000000
 C   -5.655837079341   -1.356713604827    0.000000000000
 H   -6.284703696333   -1.297324943213    0.899480149478
 H   -5.115054877836   -2.313271996215    0.000000000000
 H   -6.284703696333   -1.297324943213   -0.899480149478
 C   -5.655837316133    1.356713418333    0.000000000000
 H   -6.284703922759    1.297324646962   -0.899480149478
 H   -5.115055281579    2.313271904105    0.000000000000
 H   -6.284703922759    1.297324646962    0.899480149478
