19

 H    7.727415699506    1.297330012904   -0.899480000000
 H    6.557765699506    2.313280012904    0.000000000000
 H    7.727415699506    1.297330012904    0.899480000000
 C    7.098545699506    1.356720012904    0.000000000000
 S    5.882145699506    0.000000012904    0.000000000000
 C    7.098545699506   -1.356719987096    0.000000000000
 H    7.727415699506   -1.297329987096    0.899480000000
 H    6.557765699506   -2.313279987096    0.000000000000
 H    7.727415699506   -1.297329987096   -0.899480000000
CS   -0.567024300494    0.000000012904    0.000000000000
 S   -4.667024300494    0.000000012904    0.000000000000
 C   -5.883425413764   -1.356713604827    0.000000000000
 H   -6.512292030755   -1.297324943213    0.899480149478
 H   -5.342643212259   -2.313271996215    0.000000000000
 H   -6.512292030755   -1.297324943213   -0.899480149478
 C   -5.883425650555    1.356713418333    0.000000000000
 H   -6.512292257181    1.297324646962   -0.899480149478
 H   -5.342643616001    2.313271904105    0.000000000000
 H   -6.512292257181    1.297324646962    0.899480149478
