19

 H    7.775690143225    1.297330012904   -0.899480000000
 H    6.606040143225    2.313280012904    0.000000000000
 H    7.775690143225    1.297330012904    0.899480000000
 C    7.146820143225    1.356720012904    0.000000000000
 S    5.930420143225    0.000000012904    0.000000000000
 C    7.146820143225   -1.356719987096    0.000000000000
 H    7.775690143225   -1.297329987096    0.899480000000
 H    6.606040143225   -2.313279987096    0.000000000000
 H    7.775690143225   -1.297329987096   -0.899480000000
CS   -0.518749856775    0.000000012904    0.000000000000
 S   -4.818749856775    0.000000012904    0.000000000000
 C   -6.035150970045   -1.356713604827    0.000000000000
 H   -6.664017587037   -1.297324943213    0.899480149478
 H   -5.494368768540   -2.313271996215    0.000000000000
 H   -6.664017587037   -1.297324943213   -0.899480149478
 C   -6.035151206836    1.356713418333    0.000000000000
 H   -6.664017813462    1.297324646962   -0.899480149478
 H   -5.494369172282    2.313271904105    0.000000000000
 H   -6.664017813462    1.297324646962    0.899480149478
