19

 H    7.920513474380    1.297330012904   -0.899480000000
 H    6.750863474380    2.313280012904    0.000000000000
 H    7.920513474380    1.297330012904    0.899480000000
 C    7.291643474380    1.356720012904    0.000000000000
 S    6.075243474380    0.000000012904    0.000000000000
 C    7.291643474380   -1.356719987096    0.000000000000
 H    7.920513474380   -1.297329987096    0.899480000000
 H    6.750863474380   -2.313279987096    0.000000000000
 H    7.920513474380   -1.297329987096   -0.899480000000
CS   -0.373926525620    0.000000012904    0.000000000000
 S   -5.273926525620    0.000000012904    0.000000000000
 C   -6.490327638890   -1.356713604827    0.000000000000
 H   -7.119194255881   -1.297324943213    0.899480149478
 H   -5.949545437385   -2.313271996215    0.000000000000
 H   -7.119194255881   -1.297324943213   -0.899480149478
 C   -6.490327875681    1.356713418333    0.000000000000
 H   -7.119194482307    1.297324646962   -0.899480149478
 H   -5.949545841127    2.313271904105    0.000000000000
 H   -7.119194482307    1.297324646962    0.899480149478
