19

 H    8.041199583676    1.297330012904   -0.899480000000
 H    6.871549583676    2.313280012904    0.000000000000
 H    8.041199583676    1.297330012904    0.899480000000
 C    7.412329583676    1.356720012904    0.000000000000
 S    6.195929583676    0.000000012904    0.000000000000
 C    7.412329583676   -1.356719987096    0.000000000000
 H    8.041199583676   -1.297329987096    0.899480000000
 H    6.871549583676   -2.313279987096    0.000000000000
 H    8.041199583676   -1.297329987096   -0.899480000000
CS   -0.253240416324    0.000000012904    0.000000000000
 S   -5.653240416324    0.000000012904    0.000000000000
 C   -6.869641529594   -1.356713604827    0.000000000000
 H   -7.498508146585   -1.297324943213    0.899480149478
 H   -6.328859328089   -2.313271996215    0.000000000000
 H   -7.498508146585   -1.297324943213   -0.899480149478
 C   -6.869641766385    1.356713418333    0.000000000000
 H   -7.498508373011    1.297324646962   -0.899480149478
 H   -6.328859731831    2.313271904105    0.000000000000
 H   -7.498508373011    1.297324646962    0.899480149478
