19

 H    8.113611249254    1.297330012904   -0.899480000000
 H    6.943961249254    2.313280012904    0.000000000000
 H    8.113611249254    1.297330012904    0.899480000000
 C    7.484741249254    1.356720012904    0.000000000000
 S    6.268341249254    0.000000012904    0.000000000000
 C    7.484741249254   -1.356719987096    0.000000000000
 H    8.113611249254   -1.297329987096    0.899480000000
 H    6.943961249254   -2.313279987096    0.000000000000
 H    8.113611249254   -1.297329987096   -0.899480000000
CS   -0.180828750746    0.000000012904    0.000000000000
 S   -5.880828750746    0.000000012904    0.000000000000
 C   -7.097229864016   -1.356713604827    0.000000000000
 H   -7.726096481007   -1.297324943213    0.899480149478
 H   -6.556447662511   -2.313271996215    0.000000000000
 H   -7.726096481007   -1.297324943213   -0.899480149478
 C   -7.097230100807    1.356713418333    0.000000000000
 H   -7.726096707433    1.297324646962   -0.899480149478
 H   -6.556448066253    2.313271904105    0.000000000000
 H   -7.726096707433    1.297324646962    0.899480149478
