19

 H    8.186022914832    1.297330012904   -0.899480000000
 H    7.016372914832    2.313280012904    0.000000000000
 H    8.186022914832    1.297330012904    0.899480000000
 C    7.557152914832    1.356720012904    0.000000000000
 S    6.340752914832    0.000000012904    0.000000000000
 C    7.557152914832   -1.356719987096    0.000000000000
 H    8.186022914832   -1.297329987096    0.899480000000
 H    7.016372914832   -2.313279987096    0.000000000000
 H    8.186022914832   -1.297329987096   -0.899480000000
CS   -0.108417085168    0.000000012904    0.000000000000
 S   -6.108417085168    0.000000012904    0.000000000000
 C   -7.324818198438   -1.356713604827    0.000000000000
 H   -7.953684815430   -1.297324943213    0.899480149478
 H   -6.784035996933   -2.313271996215    0.000000000000
 H   -7.953684815430   -1.297324943213   -0.899480149478
 C   -7.324818435229    1.356713418333    0.000000000000
 H   -7.953685041855    1.297324646962   -0.899480149478
 H   -6.784036400675    2.313271904105    0.000000000000
 H   -7.953685041855    1.297324646962    0.899480149478
