19

 H    8.282571802268    1.297330012904   -0.899480000000
 H    7.112921802268    2.313280012904    0.000000000000
 H    8.282571802268    1.297330012904    0.899480000000
 C    7.653701802268    1.356720012904    0.000000000000
 S    6.437301802268    0.000000012904    0.000000000000
 C    7.653701802268   -1.356719987096    0.000000000000
 H    8.282571802268   -1.297329987096    0.899480000000
 H    7.112921802268   -2.313279987096    0.000000000000
 H    8.282571802268   -1.297329987096   -0.899480000000
CS   -0.011868197732    0.000000012904    0.000000000000
 S   -6.411868197732    0.000000012904    0.000000000000
 C   -7.628269311001   -1.356713604827    0.000000000000
 H   -8.257135927993   -1.297324943213    0.899480149478
 H   -7.087487109496   -2.313271996215    0.000000000000
 H   -8.257135927993   -1.297324943213   -0.899480149478
 C   -7.628269547793    1.356713418333    0.000000000000
 H   -8.257136154419    1.297324646961   -0.899480149478
 H   -7.087487513238    2.313271904105    0.000000000000
 H   -8.257136154419    1.297324646961    0.899480149478
