19

 H    8.451532355283    1.297330012904   -0.899480000000
 H    7.281882355283    2.313280012904    0.000000000000
 H    8.451532355283    1.297330012904    0.899480000000
 C    7.822662355283    1.356720012904    0.000000000000
 S    6.606262355283    0.000000012904    0.000000000000
 C    7.822662355283   -1.356719987096    0.000000000000
 H    8.451532355283   -1.297329987096    0.899480000000
 H    7.281882355283   -2.313279987096    0.000000000000
 H    8.451532355283   -1.297329987096   -0.899480000000
CS    0.157092355283    0.000000012904    0.000000000000
 S   -6.942907644717    0.000000012904    0.000000000000
 C   -8.159308757987   -1.356713604827    0.000000000000
 H   -8.788175374978   -1.297324943213    0.899480149478
 H   -7.618526556482   -2.313271996215    0.000000000000
 H   -8.788175374978   -1.297324943213   -0.899480149478
 C   -8.159308994778    1.356713418333    0.000000000000
 H   -8.788175601404    1.297324646961   -0.899480149478
 H   -7.618526960224    2.313271904105    0.000000000000
 H   -8.788175601404    1.297324646961    0.899480149478
