19

 H    8.548081242720    1.297330012904   -0.899480000000
 H    7.378431242720    2.313280012904    0.000000000000
 H    8.548081242720    1.297330012904    0.899480000000
 C    7.919211242720    1.356720012904    0.000000000000
 S    6.702811242720    0.000000012904    0.000000000000
 C    7.919211242720   -1.356719987096    0.000000000000
 H    8.548081242720   -1.297329987096    0.899480000000
 H    7.378431242720   -2.313279987096    0.000000000000
 H    8.548081242720   -1.297329987096   -0.899480000000
CS    0.253641242720    0.000000012904    0.000000000000
 S   -7.246358757280    0.000000012904    0.000000000000
 C   -8.462759870550   -1.356713604827    0.000000000000
 H   -9.091626487541   -1.297324943213    0.899480149478
 H   -7.921977669045   -2.313271996215    0.000000000000
 H   -9.091626487541   -1.297324943213   -0.899480149478
 C   -8.462760107341    1.356713418333    0.000000000000
 H   -9.091626713967    1.297324646961   -0.899480149478
 H   -7.921978072787    2.313271904105    0.000000000000
 H   -9.091626713967    1.297324646961    0.899480149478
