19

 H    8.596355686439    1.297330012904   -0.899480000000
 H    7.426705686439    2.313280012904    0.000000000000
 H    8.596355686439    1.297330012904    0.899480000000
 C    7.967485686439    1.356720012904    0.000000000000
 S    6.751085686439    0.000000012904    0.000000000000
 C    7.967485686439   -1.356719987096    0.000000000000
 H    8.596355686439   -1.297329987096    0.899480000000
 H    7.426705686439   -2.313279987096    0.000000000000
 H    8.596355686439   -1.297329987096   -0.899480000000
CS    0.301915686439    0.000000012904    0.000000000000
 S   -7.398084313561    0.000000012904    0.000000000000
 C   -8.614485426831   -1.356713604827    0.000000000000
 H   -9.243352043823   -1.297324943213    0.899480149478
 H   -8.073703225326   -2.313271996215    0.000000000000
 H   -9.243352043823   -1.297324943213   -0.899480149478
 C   -8.614485663622    1.356713418333    0.000000000000
 H   -9.243352270249    1.297324646961   -0.899480149478
 H   -8.073703629068    2.313271904105    0.000000000000
 H   -9.243352270249    1.297324646961    0.899480149478
