19

 H    8.620492908298    1.297330012904   -0.899480000000
 H    7.450842908298    2.313280012904    0.000000000000
 H    8.620492908298    1.297330012904    0.899480000000
 C    7.991622908298    1.356720012904    0.000000000000
 S    6.775222908298    0.000000012904    0.000000000000
 C    7.991622908298   -1.356719987096    0.000000000000
 H    8.620492908298   -1.297329987096    0.899480000000
 H    7.450842908298   -2.313279987096    0.000000000000
 H    8.620492908298   -1.297329987096   -0.899480000000
CS    0.326052908298    0.000000012904    0.000000000000
 S   -7.473947091702    0.000000012904    0.000000000000
 C   -8.690348204972   -1.356713604827    0.000000000000
 H   -9.319214821963   -1.297324943213    0.899480149478
 H   -8.149566003467   -2.313271996215    0.000000000000
 H   -9.319214821963   -1.297324943213   -0.899480149478
 C   -8.690348441763    1.356713418333    0.000000000000
 H   -9.319215048389    1.297324646961   -0.899480149478
 H   -8.149566407209    2.313271904105    0.000000000000
 H   -9.319215048389    1.297324646961    0.899480149478
