19

 H    8.644630130157    1.297330012904   -0.899480000000
 H    7.474980130157    2.313280012904    0.000000000000
 H    8.644630130157    1.297330012904    0.899480000000
 C    8.015760130157    1.356720012904    0.000000000000
 S    6.799360130157    0.000000012904    0.000000000000
 C    8.015760130157   -1.356719987096    0.000000000000
 H    8.644630130157   -1.297329987096    0.899480000000
 H    7.474980130157   -2.313279987096    0.000000000000
 H    8.644630130157   -1.297329987096   -0.899480000000
CS    0.350190130157    0.000000012904    0.000000000000
 S   -7.549809869843    0.000000012904    0.000000000000
 C   -8.766210983113   -1.356713604827    0.000000000000
 H   -9.395077600104   -1.297324943213    0.899480149478
 H   -8.225428781608   -2.313271996215    0.000000000000
 H   -9.395077600104   -1.297324943213   -0.899480149478
 C   -8.766211219904    1.356713418333    0.000000000000
 H   -9.395077826530    1.297324646961   -0.899480149478
 H   -8.225429185350    2.313271904105    0.000000000000
 H   -9.395077826530    1.297324646961    0.899480149478
