19

 H    8.717041795735    1.297330012904   -0.899480000000
 H    7.547391795735    2.313280012904    0.000000000000
 H    8.717041795735    1.297330012904    0.899480000000
 C    8.088171795735    1.356720012904    0.000000000000
 S    6.871771795735    0.000000012904    0.000000000000
 C    8.088171795735   -1.356719987096    0.000000000000
 H    8.717041795735   -1.297329987096    0.899480000000
 H    7.547391795735   -2.313279987096    0.000000000000
 H    8.717041795735   -1.297329987096   -0.899480000000
CS    0.422601795735    0.000000012904    0.000000000000
 S   -7.777398204265    0.000000012904    0.000000000000
 C   -8.993799317535   -1.356713604827    0.000000000000
 H   -9.622665934526   -1.297324943213    0.899480149478
 H   -8.453017116030   -2.313271996215    0.000000000000
 H   -9.622665934526   -1.297324943213   -0.899480149478
 C   -8.993799554326    1.356713418333    0.000000000000
 H   -9.622666160952    1.297324646961   -0.899480149478
 H   -8.453017519772    2.313271904105    0.000000000000
 H   -9.622666160952    1.297324646961    0.899480149478
