19

 H    8.741179017594    1.297330012904   -0.899480000000
 H    7.571529017594    2.313280012904    0.000000000000
 H    8.741179017594    1.297330012904    0.899480000000
 C    8.112309017594    1.356720012904    0.000000000000
 S    6.895909017594    0.000000012904    0.000000000000
 C    8.112309017594   -1.356719987096    0.000000000000
 H    8.741179017594   -1.297329987096    0.899480000000
 H    7.571529017594   -2.313279987096    0.000000000000
 H    8.741179017594   -1.297329987096   -0.899480000000
CS    0.446739017594    0.000000012904    0.000000000000
 S   -7.853260982406    0.000000012904    0.000000000000
 C   -9.069662095676   -1.356713604827    0.000000000000
 H   -9.698528712667   -1.297324943213    0.899480149478
 H   -8.528879894171   -2.313271996215    0.000000000000
 H   -9.698528712667   -1.297324943213   -0.899480149478
 C   -9.069662332467    1.356713418333    0.000000000000
 H   -9.698528939093    1.297324646961   -0.899480149478
 H   -8.528880297913    2.313271904105    0.000000000000
 H   -9.698528939093    1.297324646961    0.899480149478
