19

 H    8.813590683172    1.297330012904   -0.899480000000
 H    7.643940683172    2.313280012904    0.000000000000
 H    8.813590683172    1.297330012904    0.899480000000
 C    8.184720683172    1.356720012904    0.000000000000
 S    6.968320683172    0.000000012904    0.000000000000
 C    8.184720683172   -1.356719987096    0.000000000000
 H    8.813590683172   -1.297329987096    0.899480000000
 H    7.643940683172   -2.313279987096    0.000000000000
 H    8.813590683172   -1.297329987096   -0.899480000000
CS    0.519150683172    0.000000012904    0.000000000000
 S   -8.080849316828    0.000000012904    0.000000000000
 C   -9.297250430098   -1.356713604827    0.000000000000
 H   -9.926117047089   -1.297324943213    0.899480149478
 H   -8.756468228593   -2.313271996215    0.000000000000
 H   -9.926117047089   -1.297324943213   -0.899480149478
 C   -9.297250666889    1.356713418333    0.000000000000
 H   -9.926117273515    1.297324646961   -0.899480149478
 H   -8.756468632335    2.313271904105    0.000000000000
 H   -9.926117273515    1.297324646961    0.899480149478
