19

 H    8.837727905031    1.297330012904   -0.899480000000
 H    7.668077905031    2.313280012904    0.000000000000
 H    8.837727905031    1.297330012904    0.899480000000
 C    8.208857905031    1.356720012904    0.000000000000
 S    6.992457905031    0.000000012904    0.000000000000
 C    8.208857905031   -1.356719987096    0.000000000000
 H    8.837727905031   -1.297329987096    0.899480000000
 H    7.668077905031   -2.313279987096    0.000000000000
 H    8.837727905031   -1.297329987096   -0.899480000000
CS    0.543287905031    0.000000012904    0.000000000000
 S   -8.156712094969    0.000000012904    0.000000000000
 C   -9.373113208239   -1.356713604827    0.000000000000
 H  -10.001979825230   -1.297324943213    0.899480149478
 H   -8.832331006734   -2.313271996215    0.000000000000
 H  -10.001979825230   -1.297324943213   -0.899480149478
 C   -9.373113445030    1.356713418333    0.000000000000
 H  -10.001980051656    1.297324646961   -0.899480149478
 H   -8.832331410476    2.313271904105    0.000000000000
 H  -10.001980051656    1.297324646961    0.899480149478
