19

 H    8.910139570609    1.297330012904   -0.899480000000
 H    7.740489570609    2.313280012904    0.000000000000
 H    8.910139570609    1.297330012904    0.899480000000
 C    8.281269570609    1.356720012904    0.000000000000
 S    7.064869570609    0.000000012904    0.000000000000
 C    8.281269570609   -1.356719987096    0.000000000000
 H    8.910139570609   -1.297329987096    0.899480000000
 H    7.740489570609   -2.313279987096    0.000000000000
 H    8.910139570609   -1.297329987096   -0.899480000000
CS    0.615699570609    0.000000012904    0.000000000000
 S   -8.384300429391    0.000000012904    0.000000000000
 C   -9.600701542661   -1.356713604827    0.000000000000
 H  -10.229568159653   -1.297324943213    0.899480149478
 H   -9.059919341156   -2.313271996215    0.000000000000
 H  -10.229568159653   -1.297324943213   -0.899480149478
 C   -9.600701779452    1.356713418333    0.000000000000
 H  -10.229568386078    1.297324646961   -0.899480149478
 H   -9.059919744898    2.313271904105    0.000000000000
 H  -10.229568386078    1.297324646961    0.899480149478
