19

 H    8.934276792468    1.297330012904   -0.899480000000
 H    7.764626792468    2.313280012904    0.000000000000
 H    8.934276792468    1.297330012904    0.899480000000
 C    8.305406792468    1.356720012904    0.000000000000
 S    7.089006792468    0.000000012904    0.000000000000
 C    8.305406792468   -1.356719987096    0.000000000000
 H    8.934276792468   -1.297329987096    0.899480000000
 H    7.764626792468   -2.313279987096    0.000000000000
 H    8.934276792468   -1.297329987096   -0.899480000000
CS    0.639836792468    0.000000012904    0.000000000000
 S   -8.460163207532    0.000000012904    0.000000000000
 C   -9.676564320802   -1.356713604827    0.000000000000
 H  -10.305430937793   -1.297324943213    0.899480149478
 H   -9.135782119297   -2.313271996215    0.000000000000
 H  -10.305430937793   -1.297324943213   -0.899480149478
 C   -9.676564557593    1.356713418333    0.000000000000
 H  -10.305431164219    1.297324646961   -0.899480149478
 H   -9.135782523039    2.313271904105    0.000000000000
 H  -10.305431164219    1.297324646961    0.899480149478
