19

 H    8.958414014327    1.297330012904   -0.899480000000
 H    7.788764014327    2.313280012904    0.000000000000
 H    8.958414014327    1.297330012904    0.899480000000
 C    8.329544014327    1.356720012904    0.000000000000
 S    7.113144014327    0.000000012904    0.000000000000
 C    8.329544014327   -1.356719987096    0.000000000000
 H    8.958414014327   -1.297329987096    0.899480000000
 H    7.788764014327   -2.313279987096    0.000000000000
 H    8.958414014327   -1.297329987096   -0.899480000000
CS    0.663974014327    0.000000012904    0.000000000000
 S   -8.536025985673    0.000000012904    0.000000000000
 C   -9.752427098943   -1.356713604827    0.000000000000
 H  -10.381293715934   -1.297324943213    0.899480149478
 H   -9.211644897438   -2.313271996215    0.000000000000
 H  -10.381293715934   -1.297324943213   -0.899480149478
 C   -9.752427335734    1.356713418333    0.000000000000
 H  -10.381293942360    1.297324646961   -0.899480149478
 H   -9.211645301180    2.313271904105    0.000000000000
 H  -10.381293942360    1.297324646961    0.899480149478
