19

 H    9.030825679905    1.297330012904   -0.899480000000
 H    7.861175679905    2.313280012904    0.000000000000
 H    9.030825679905    1.297330012904    0.899480000000
 C    8.401955679905    1.356720012904    0.000000000000
 S    7.185555679905    0.000000012904    0.000000000000
 C    8.401955679905   -1.356719987096    0.000000000000
 H    9.030825679905   -1.297329987096    0.899480000000
 H    7.861175679905   -2.313279987096    0.000000000000
 H    9.030825679905   -1.297329987096   -0.899480000000
CS    0.736385679905    0.000000012904    0.000000000000
 S   -8.763614320095    0.000000012904    0.000000000000
 C   -9.980015433365   -1.356713604827    0.000000000000
 H  -10.608882050356   -1.297324943213    0.899480149478
 H   -9.439233231860   -2.313271996215    0.000000000000
 H  -10.608882050356   -1.297324943213   -0.899480149478
 C   -9.980015670156    1.356713418333    0.000000000000
 H  -10.608882276782    1.297324646961   -0.899480149478
 H   -9.439233635602    2.313271904105    0.000000000000
 H  -10.608882276782    1.297324646961    0.899480149478
