19

 H    9.054962901764    1.297330012904   -0.899480000000
 H    7.885312901764    2.313280012904    0.000000000000
 H    9.054962901764    1.297330012904    0.899480000000
 C    8.426092901764    1.356720012904    0.000000000000
 S    7.209692901764    0.000000012904    0.000000000000
 C    8.426092901764   -1.356719987096    0.000000000000
 H    9.054962901764   -1.297329987096    0.899480000000
 H    7.885312901764   -2.313279987096    0.000000000000
 H    9.054962901764   -1.297329987096   -0.899480000000
CS    0.760522901764    0.000000012904    0.000000000000
 S   -8.839477098236    0.000000012904    0.000000000000
 C  -10.055878211506   -1.356713604827    0.000000000000
 H  -10.684744828497   -1.297324943213    0.899480149478
 H   -9.515096010001   -2.313271996215    0.000000000000
 H  -10.684744828497   -1.297324943213   -0.899480149478
 C  -10.055878448297    1.356713418333    0.000000000000
 H  -10.684745054923    1.297324646961   -0.899480149478
 H   -9.515096413743    2.313271904105    0.000000000000
 H  -10.684745054923    1.297324646961    0.899480149478
