19

 H    9.127374567342    1.297330012904   -0.899480000000
 H    7.957724567342    2.313280012904    0.000000000000
 H    9.127374567342    1.297330012904    0.899480000000
 C    8.498504567342    1.356720012904    0.000000000000
 S    7.282104567342    0.000000012904    0.000000000000
 C    8.498504567342   -1.356719987096    0.000000000000
 H    9.127374567342   -1.297329987096    0.899480000000
 H    7.957724567342   -2.313279987096    0.000000000000
 H    9.127374567342   -1.297329987096   -0.899480000000
CS    0.832934567342    0.000000012904    0.000000000000
 S   -9.067065432658    0.000000012904    0.000000000000
 C  -10.283466545928   -1.356713604827    0.000000000000
 H  -10.912333162919   -1.297324943213    0.899480149478
 H   -9.742684344423   -2.313271996215    0.000000000000
 H  -10.912333162919   -1.297324943213   -0.899480149478
 C  -10.283466782719    1.356713418333    0.000000000000
 H  -10.912333389345    1.297324646961   -0.899480149478
 H   -9.742684748165    2.313271904105    0.000000000000
 H  -10.912333389345    1.297324646961    0.899480149478
