13

 N   -2.583112290341    1.707863221494    0.000719538585
 C   -1.409372707258    2.435235413004    0.000407059415
 H   -1.527089567321    3.520553872048    0.000291211856
 C   -2.628888263421    0.314651429627    0.000334484016
 O   -3.680476431977   -0.319451884214    0.000677851120
 N   -1.368447722280   -0.268818626505    0.000751387338
 H   -1.358631925157   -1.287103738371    0.000724083243
 C   -0.107193433047    0.367236860458    0.000768482174
 O    0.926499495021   -0.302026973958    0.000022816510
 C   -0.188672224807    1.827783921848    0.000268584727
 H    0.734727913495    2.404844180714   -0.000072092050
 H   -3.486849466289    2.167517342854    0.000517886985
RB    1.849861987794   -0.899857437618   -0.000643261092
