13

 N   -2.691689060239    1.778161182695    0.000797861622
 C   -1.517949477156    2.505533374205    0.000485382452
 H   -1.635666337219    3.590851833249    0.000369534893
 C   -2.737465033319    0.384949390828    0.000412807053
 O   -3.789053201875   -0.249153923013    0.000756174157
 N   -1.477024492178   -0.198520665304    0.000829710375
 H   -1.467208695055   -1.216805777170    0.000802406280
 C   -0.215770202945    0.437534821659    0.000846805211
 O    0.817922725123   -0.231729012757    0.000101139547
 C   -0.297248994705    1.898081883049    0.000346907764
 H    0.626151143597    2.475142141915    0.000006230987
 H   -3.595426236187    2.237815304055    0.000596210022
RB    1.993111352289   -0.992604148325   -0.000746595583
