13

 N   -2.764073573504    1.825026490162    0.000850076980
 C   -1.590333990421    2.552398681672    0.000537597810
 H   -1.708050850484    3.637717140716    0.000421750251
 C   -2.809849546584    0.431814698295    0.000465022411
 O   -3.861437715140   -0.202288615546    0.000808389515
 N   -1.549409005443   -0.151655357837    0.000881925733
 H   -1.539593208320   -1.169940469703    0.000854621638
 C   -0.288154716210    0.484400129126    0.000899020569
 O    0.745538211858   -0.184863705290    0.000153354905
 C   -0.369633507970    1.944947190516    0.000399123122
 H    0.553766630332    2.522007449382    0.000058446345
 H   -3.667810749452    2.284680611522    0.000648425380
RB    2.088610928619   -1.054435288796   -0.000815485243
