13

 N   -2.800265830137    1.848459143895    0.000876184658
 C   -1.626526247054    2.575831335405    0.000563705488
 H   -1.744243107117    3.661149794449    0.000447857929
 C   -2.846041803217    0.455247352028    0.000491130089
 O   -3.897629971773   -0.178855961813    0.000834497193
 N   -1.585601262076   -0.128222704104    0.000908033411
 H   -1.575785464953   -1.146507815970    0.000880729316
 C   -0.324346972843    0.507832782859    0.000925128247
 O    0.709345955225   -0.161431051557    0.000179462583
 C   -0.405825764603    1.968379844249    0.000425230800
 H    0.517574373699    2.545440103115    0.000084554023
 H   -3.704003006085    2.308113265255    0.000674533058
RB    2.136360716784   -1.085350859032   -0.000849930073
