13

 N   -2.872650343402    1.895324451362    0.000928400016
 C   -1.698910760319    2.622696642872    0.000615920846
 H   -1.816627620382    3.708015101916    0.000500073287
 C   -2.918426316482    0.502112659495    0.000543345447
 O   -3.970014485038   -0.131990654346    0.000886712551
 N   -1.657985775341   -0.081357396637    0.000960248769
 H   -1.648169978218   -1.099642508503    0.000932944674
 C   -0.396731486108    0.554698090326    0.000977343605
 O    0.636961441960   -0.114565744090    0.000231677941
 C   -0.478210277868    2.015245151716    0.000477446158
 H    0.445189860434    2.592305410582    0.000136769381
 H   -3.776387519350    2.354978572722    0.000726748416
RB    2.231860293113   -1.147181999503   -0.000918819734
