13

 N   -5.804223130649    3.793369403773    0.003043122009
 C   -4.630483547566    4.520741595283    0.002730642839
 H   -4.748200407629    5.606060054327    0.002614795280
 C   -5.849999103729    2.400157611906    0.002658067440
 O   -6.901587272285    1.766054298065    0.003001434544
 N   -4.589558562588    1.816687555774    0.003074970762
 H   -4.579742765465    0.798402443908    0.003047666667
 C   -3.328304273355    2.452743042737    0.003092065598
 O   -2.294611345287    1.783479208321    0.002346399934
 C   -3.409783065115    3.913290104127    0.002592168151
 H   -2.486382926813    4.490350362993    0.002251491374
 H   -6.707960306597    4.253023525133    0.002841470409
RB    6.099593134469   -3.651343188591   -0.003708850989
