13

 N   -2.908842600035    1.918757105096    0.000954507695
 C   -1.735103016952    2.646129296606    0.000642028525
 H   -1.852819877015    3.731447755650    0.000526180966
 C   -2.954618573115    0.525545313229    0.000569453126
 O   -4.006206741671   -0.108558000612    0.000912820230
 N   -1.694178031974   -0.057924742903    0.000986356448
 H   -1.684362234851   -1.076209854769    0.000959052353
 C   -0.432923742741    0.578130744060    0.001003451284
 O    0.600769185327   -0.091133090356    0.000257785620
 C   -0.514402534501    2.038677805450    0.000503553837
 H    0.408997603801    2.615738064316    0.000162877060
 H   -3.812579775983    2.378411226456    0.000752856095
RB    2.279610081278   -1.178097569739   -0.000953264564
