13

 N   -2.945034856668    1.942189758829    0.000980615374
 C   -1.771295273585    2.669561950339    0.000668136204
 H   -1.889012133648    3.754880409383    0.000552288645
 C   -2.990810829748    0.548977966962    0.000595560805
 O   -4.042398998304   -0.085125346879    0.000938927909
 N   -1.730370288607   -0.034492089170    0.001012464127
 H   -1.720554491484   -1.052777201036    0.000985160032
 C   -0.469115999374    0.601563397793    0.001029558963
 O    0.564576928694   -0.067700436623    0.000283893299
 C   -0.550594791134    2.062110459183    0.000529661516
 H    0.372805347168    2.639170718049    0.000188984739
 H   -3.848772032616    2.401843880189    0.000778963774
RB    2.327359869443   -1.209013139974   -0.000987709395
