13

 N   -3.089803883198    2.035920373763    0.001085046090
 C   -1.916064300115    2.763292565273    0.000772566920
 H   -2.033781160178    3.848611024317    0.000656719361
 C   -3.135579856278    0.642708581896    0.000699991521
 O   -4.187168024834    0.008605268055    0.001043358625
 N   -1.875139315137    0.059238525764    0.001116894843
 H   -1.865323518014   -0.959046586102    0.001089590748
 C   -0.613885025904    0.695294012727    0.001133989679
 O    0.419807902164    0.026030178311    0.000388324015
 C   -0.695363817664    2.155841074117    0.000634092232
 H    0.228036320638    2.732901332983    0.000293415455
 H   -3.993541059146    2.495574495123    0.000883394490
RB    2.518359022103   -1.332675420917   -0.001125488716
