13

 N   -3.125996139831    2.059353027497    0.001111153769
 C   -1.952256556748    2.786725219007    0.000798674599
 H   -2.069973416811    3.872043678051    0.000682827040
 C   -3.171772112911    0.666141235630    0.000726099200
 O   -4.223360281467    0.032037921789    0.001069466304
 N   -1.911331571770    0.082671179498    0.001143002522
 H   -1.901515774647   -0.935613932368    0.001115698427
 C   -0.650077282537    0.718726666461    0.001160097358
 O    0.383615645531    0.049462832045    0.000414431694
 C   -0.731556074297    2.179273727851    0.000660199911
 H    0.191844064005    2.756333986717    0.000319523134
 H   -4.029733315779    2.519007148857    0.000909502169
RB    2.566108810268   -1.363590991153   -0.001159933546
