13

 N   -3.162188396464    2.082785681230    0.001137261448
 C   -1.988448813381    2.810157872740    0.000824782278
 H   -2.106165673444    3.895476331784    0.000708934719
 C   -3.207964369544    0.689573889363    0.000752206879
 O   -4.259552538100    0.055470575522    0.001095573983
 N   -1.947523828403    0.106103833231    0.001169110201
 H   -1.937708031280   -0.912181278635    0.001141806106
 C   -0.686269539170    0.742159320194    0.001186205037
 O    0.347423388898    0.072895485778    0.000440539373
 C   -0.767748330930    2.202706381584    0.000686307590
 H    0.155651807372    2.779766640450    0.000345630813
 H   -4.065925572412    2.542439802590    0.000935609848
RB    2.613858598433   -1.394506561388   -0.001194378377
