13

 N   -3.379341936260    2.223381603631    0.001293907521
 C   -2.205602353177    2.950753795141    0.000981428351
 H   -2.323319213240    4.036072254185    0.000865580792
 C   -3.425117909340    0.830169811764    0.000908852952
 O   -4.476706077896    0.196066497923    0.001252220056
 N   -2.164677368199    0.246699755632    0.001325756274
 H   -2.154861571076   -0.771585356234    0.001298452179
 C   -0.903423078966    0.882755242595    0.001342851110
 O    0.130269849102    0.213491408179    0.000597185446
 C   -0.984901870726    2.343302303985    0.000842953663
 H   -0.061501732424    2.920362562851    0.000502276886
 H   -4.283079112208    2.683035724991    0.001092255921
RB    2.900357327422   -1.579999982802   -0.001401047358
