13

 N   -3.524110962790    2.317112218565    0.001398338237
 C   -2.350371379707    3.044484410075    0.001085859067
 H   -2.468088239770    4.129802869119    0.000970011508
 C   -3.569886935870    0.923900426698    0.001013283668
 O   -4.621475104426    0.289797112857    0.001356650772
 N   -2.309446394729    0.340430370566    0.001430186990
 H   -2.299630597606   -0.677854741300    0.001402882895
 C   -1.048192105496    0.976485857529    0.001447281826
 O   -0.014499177428    0.307222023113    0.000701616162
 C   -1.129670897256    2.437032918919    0.000947384379
 H   -0.206270758954    3.014093177785    0.000606707602
 H   -4.427848138738    2.776766339925    0.001196686637
RB    3.091356480081   -1.703662263745   -0.001538826680
