13

 N   -3.560303219423    2.340544872298    0.001424445916
 C   -2.386563636340    3.067917063808    0.001111966746
 H   -2.504280496403    4.153235522852    0.000996119187
 C   -3.606079192503    0.947333080431    0.001039391347
 O   -4.657667361059    0.313229766590    0.001382758451
 N   -2.345638651362    0.363863024299    0.001456294669
 H   -2.335822854239   -0.654422087567    0.001428990574
 C   -1.084384362129    0.999918511262    0.001473389505
 O   -0.050691434061    0.330654676846    0.000727723841
 C   -1.165863153889    2.460465572652    0.000973492058
 H   -0.242463015587    3.037525831518    0.000632815281
 H   -4.464040395371    2.800198993658    0.001222794316
RB    3.139106268246   -1.734577833980   -0.001573271510
