13

 N   -3.596495476056    2.363977526032    0.001450553595
 C   -2.422755892973    3.091349717542    0.001138074425
 H   -2.540472753036    4.176668176586    0.001022226866
 C   -3.642271449136    0.970765734165    0.001065499026
 O   -4.693859617692    0.336662420324    0.001408866130
 N   -2.381830907995    0.387295678033    0.001482402348
 H   -2.372015110872   -0.630989433833    0.001455098253
 C   -1.120576618762    1.023351164996    0.001499497184
 O   -0.086883690694    0.354087330580    0.000753831520
 C   -1.202055410522    2.483898226386    0.000999599737
 H   -0.278655272220    3.060958485252    0.000658922960
 H   -4.500232652004    2.823631647392    0.001248901995
RB    3.186856056411   -1.765493404216   -0.001607716340
