13

 N   -3.777456759219    2.481140794699    0.001581091989
 C   -2.603717176136    3.208512986209    0.001268612819
 H   -2.721434036199    4.293831445253    0.001152765260
 C   -3.823232732299    1.087929002832    0.001196037420
 O   -4.874820900855    0.453825688991    0.001539404524
 N   -2.562792191158    0.504458946700    0.001612940742
 H   -2.552976394035   -0.513826165166    0.001585636647
 C   -1.301537901925    1.140514433663    0.001630035578
 O   -0.267844973857    0.471250599247    0.000884369914
 C   -1.383016693685    2.601061495053    0.001130138131
 H   -0.459616555383    3.178121753919    0.000789461354
 H   -4.681193935167    2.940794916059    0.001379440389
RB    3.425604997236   -1.920071255394   -0.001779940492
