13

 N   -3.922225785750    2.574871409633    0.001685522705
 C   -2.748486202667    3.302243601143    0.001373043535
 H   -2.866203062730    4.387562060187    0.001257195976
 C   -3.968001758830    1.181659617766    0.001300468136
 O   -5.019589927386    0.547556303925    0.001643835240
 N   -2.707561217689    0.598189561634    0.001717371458
 H   -2.697745420566   -0.420095550232    0.001690067363
 C   -1.446306928456    1.234245048597    0.001734466294
 O   -0.412614000388    0.564981214181    0.000988800630
 C   -1.527785720216    2.694792109987    0.001234568847
 H   -0.604385581914    3.271852368853    0.000893892070
 H   -4.825962961698    3.034525530993    0.001483871105
RB    3.616604149895   -2.043733536337   -0.001917719813
