13

 N   -3.958418042383    2.598304063366    0.001711630384
 C   -2.784678459300    3.325676254876    0.001399151214
 H   -2.902395319363    4.410994713920    0.001283303655
 C   -4.004194015463    1.205092271499    0.001326575815
 O   -5.055782184019    0.570988957658    0.001669942919
 N   -2.743753474322    0.621622215367    0.001743479137
 H   -2.733937677199   -0.396662896499    0.001716175042
 C   -1.482499185089    1.257677702330    0.001760573973
 O   -0.448806257021    0.588413867914    0.001014908309
 C   -1.563977976849    2.718224763720    0.001260676526
 H   -0.640577838547    3.295285022586    0.000919999749
 H   -4.862155218331    3.057958184726    0.001509978784
RB    3.664353938060   -2.074649106573   -0.001952164643
