13

 N   -4.030802555648    2.645169370833    0.001763845742
 C   -2.857062972565    3.372541562343    0.001451366572
 H   -2.974779832628    4.457860021387    0.001335519013
 C   -4.076578528728    1.251957578966    0.001378791173
 O   -5.128166697284    0.617854265125    0.001722158277
 N   -2.816137987587    0.668487522834    0.001795694495
 H   -2.806322190464   -0.349797589032    0.001768390400
 C   -1.554883698354    1.304543009797    0.001812789331
 O   -0.521190770286    0.635279175381    0.001067123667
 C   -1.636362490114    2.765090071187    0.001312891884
 H   -0.712962351812    3.342150330053    0.000972215107
 H   -4.934539731596    3.104823492193    0.001562194142
RB    3.759853514390   -2.136480247044   -0.002021054304
