13

 N   -4.066994812281    2.668602024567    0.001789953421
 C   -2.893255229198    3.395974216077    0.001477474251
 H   -3.010972089261    4.481292675121    0.001361626692
 C   -4.112770785361    1.275390232700    0.001404898852
 O   -5.164358953917    0.641286918859    0.001748265956
 N   -2.852330244220    0.691920176568    0.001821802174
 H   -2.842514447097   -0.326364935298    0.001794498079
 C   -1.591075954987    1.327975663531    0.001838897010
 O   -0.557383026919    0.658711829115    0.001093231346
 C   -1.672554746747    2.788522724921    0.001338999563
 H   -0.749154608445    3.365582983787    0.000998322786
 H   -4.970731988229    3.128256145927    0.001588301821
RB    3.807603302555   -2.167395817279   -0.002055499134
