13

 N   -4.103187068913    2.692034678300    0.001816061100
 C   -2.929447485830    3.419406869810    0.001503581930
 H   -3.047164345893    4.504725328854    0.001387734371
 C   -4.148963041993    1.298822886433    0.001431006531
 O   -5.200551210549    0.664719572592    0.001774373635
 N   -2.888522500852    0.715352830301    0.001847909853
 H   -2.878706703729   -0.302932281565    0.001820605758
 C   -1.627268211619    1.351408317264    0.001865004689
 O   -0.593575283551    0.682144482848    0.001119339025
 C   -1.708747003379    2.811955378654    0.001365107242
 H   -0.785346865077    3.389015637520    0.001024430465
 H   -5.006924244861    3.151688799660    0.001614409500
RB    3.855353090719   -2.198311387515   -0.002089943965
