13

 N   -4.247956095444    2.785765293234    0.001920491816
 C   -3.074216512361    3.513137484744    0.001608012646
 H   -3.191933372424    4.598455943788    0.001492165087
 C   -4.293732068524    1.392553501367    0.001535437247
 O   -5.345320237080    0.758450187526    0.001878804351
 N   -3.033291527383    0.809083445235    0.001952340569
 H   -3.023475730260   -0.209201666631    0.001925036474
 C   -1.772037238150    1.445138932198    0.001969435405
 O   -0.738344310082    0.775875097782    0.001223769741
 C   -1.853516029910    2.905685993588    0.001469537958
 H   -0.930115891608    3.482746252454    0.001128861181
 H   -5.151693271392    3.245419414594    0.001718840216
RB    4.046352243379   -2.321973668458   -0.002227723286
