13

 N   -4.284148352077    2.809197946968    0.001946599494
 C   -3.110408768994    3.536570138478    0.001634120324
 H   -3.228125629057    4.621888597522    0.001518272765
 C   -4.329924325157    1.415986155101    0.001561544925
 O   -5.381512493713    0.781882841260    0.001904912029
 N   -3.069483784016    0.832516098969    0.001978448247
 H   -3.059667986893   -0.185769012897    0.001951144152
 C   -1.808229494783    1.468571585932    0.001995543083
 O   -0.774536566715    0.799307751516    0.001249877419
 C   -1.889708286543    2.929118647322    0.001495645636
 H   -0.966308148241    3.506178906188    0.001154968859
 H   -5.187885528025    3.268852068328    0.001744947894
RB    4.094102031544   -2.352889238693   -0.002262168116
