13

 N   -4.320340608709    2.832630600701    0.001972707173
 C   -3.146601025626    3.560002792211    0.001660228003
 H   -3.264317885689    4.645321251255    0.001544380444
 C   -4.366116581789    1.439418808834    0.001587652604
 O   -5.417704750345    0.805315494993    0.001931019708
 N   -3.105676040648    0.855948752702    0.002004555926
 H   -3.095860243525   -0.162336359164    0.001977251831
 C   -1.844421751415    1.492004239665    0.002021650762
 O   -0.810728823347    0.822740405249    0.001275985098
 C   -1.925900543175    2.952551301055    0.001521753315
 H   -1.002500404873    3.529611559921    0.001181076538
 H   -5.224077784657    3.292284722061    0.001771055573
RB    4.141851819709   -2.383804808929   -0.002296612946
