13

 N   -4.537494148505    2.973226523102    0.002129353247
 C   -3.363754565422    3.700598714612    0.001816874077
 H   -3.481471425485    4.785917173656    0.001701026518
 C   -4.583270121585    1.580014731235    0.001744298678
 O   -5.634858290141    0.945911417394    0.002087665782
 N   -3.322829580444    0.996544675103    0.002161202000
 H   -3.313013783321   -0.021740436763    0.002133897905
 C   -2.061575291211    1.632600162066    0.002178296836
 O   -1.027882363143    0.963336327650    0.001432631172
 C   -2.143054082971    3.093147223456    0.001678399389
 H   -1.219653944669    3.670207482322    0.001337722612
 H   -5.441231324453    3.432880644462    0.001927701647
RB    4.428350548698   -2.569298230343   -0.002503281928
