13

 N   -4.609878661771    3.020091830569    0.002181568605
 C   -3.436139078688    3.747464022079    0.001869089435
 H   -3.553855938751    4.832782481123    0.001753241876
 C   -4.655654634851    1.626880038702    0.001796514036
 O   -5.707242803407    0.992776724861    0.002139881140
 N   -3.395214093710    1.043409982570    0.002213417358
 H   -3.385398296587    0.025124870704    0.002186113263
 C   -2.133959804477    1.679465469533    0.002230512194
 O   -1.100266876409    1.010201635117    0.001484846530
 C   -2.215438596237    3.140012530923    0.001730614747
 H   -1.292038457935    3.717072789789    0.001389937970
 H   -5.513615837719    3.479745951929    0.001979917005
RB    4.523850125028   -2.631129370814   -0.002572171589
