13

 N   -4.646070918403    3.043524484302    0.002207676284
 C   -3.472331335320    3.770896675812    0.001895197114
 H   -3.590048195383    4.856215134856    0.001779349555
 C   -4.691846891483    1.650312692435    0.001822621715
 O   -5.743435060039    1.016209378594    0.002165988819
 N   -3.431406350342    1.066842636303    0.002239525037
 H   -3.421590553219    0.048557524437    0.002212220942
 C   -2.170152061109    1.702898123266    0.002256619873
 O   -1.136459133041    1.033634288850    0.001510954209
 C   -2.251630852869    3.163445184656    0.001756722426
 H   -1.328230714567    3.740505443522    0.001416045649
 H   -5.549808094351    3.503178605662    0.002006024684
RB    4.571599913193   -2.662044941050   -0.002606616419
