13

 N   -4.718455431669    3.090389791769    0.002259891642
 C   -3.544715848586    3.817761983279    0.001947412472
 H   -3.662432708649    4.903080442323    0.001831564913
 C   -4.764231404749    1.697177999902    0.001874837073
 O   -5.815819573305    1.063074686061    0.002218204177
 N   -3.503790863608    1.113707943770    0.002291740395
 H   -3.493975066485    0.095422831904    0.002264436300
 C   -2.242536574375    1.749763430733    0.002308835231
 O   -1.208843646307    1.080499596317    0.001563169567
 C   -2.324015366135    3.210310492123    0.001808937784
 H   -1.400615227833    3.787370750989    0.001468261007
 H   -5.622192607617    3.550043913129    0.002058240042
RB    4.667099489523   -2.723876081521   -0.002675506080
