13

 N   -4.754647688302    3.113822445503    0.002285999320
 C   -3.580908105219    3.841194637013    0.001973520150
 H   -3.698624965282    4.926513096057    0.001857672591
 C   -4.800423661382    1.720610653636    0.001900944751
 O   -5.852011829938    1.086507339795    0.002244311855
 N   -3.539983120241    1.137140597504    0.002317848073
 H   -3.530167323118    0.118855485638    0.002290543978
 C   -2.278728831008    1.773196084467    0.002334942909
 O   -1.245035902940    1.103932250051    0.001589277245
 C   -2.360207622768    3.233743145857    0.001835045462
 H   -1.436807484466    3.810803404723    0.001494368685
 H   -5.658384864250    3.573476566863    0.002084347720
RB    4.714849277687   -2.754791651757   -0.002709950910
