13

 N   -4.935608971465    3.230985714170    0.002416537715
 C   -3.761869388382    3.958357905680    0.002104058545
 H   -3.879586248445    5.043676364724    0.001988210986
 C   -4.981384944545    1.837773922303    0.002031483146
 O   -6.032973113101    1.203670608462    0.002374850250
 N   -3.720944403404    1.254303866171    0.002448386468
 H   -3.711128606281    0.236018754305    0.002421082373
 C   -2.459690114171    1.890359353134    0.002465481304
 O   -1.425997186103    1.221095518718    0.001719815640
 C   -2.541168905931    3.350906414524    0.001965583857
 H   -1.617768767629    3.927966673390    0.001624907080
 H   -5.839346147413    3.690639835530    0.002214886115
RB    4.953598218512   -2.909369502935   -0.002882175062
