13

 N   -5.007993484730    3.277851021637    0.002468753073
 C   -3.834253901647    4.005223213147    0.002156273903
 H   -3.951970761710    5.090541672191    0.002040426344
 C   -5.053769457810    1.884639229770    0.002083698504
 O   -6.105357626366    1.250535915929    0.002427065608
 N   -3.793328916669    1.301169173638    0.002500601826
 H   -3.783513119546    0.282884061772    0.002473297731
 C   -2.532074627436    1.937224660601    0.002517696662
 O   -1.498381699368    1.267960826185    0.001772030998
 C   -2.613553419196    3.397771721991    0.002017799215
 H   -1.690153280894    3.974831980857    0.001677122438
 H   -5.911730660678    3.737505142997    0.002267101473
RB    5.049097794842   -2.971200643406   -0.002951064722
