13

 N   -5.044185741363    3.301283675370    0.002494860752
 C   -3.870446158280    4.028655866880    0.002182381582
 H   -3.988163018343    5.113974325924    0.002066534023
 C   -5.089961714443    1.908071883503    0.002109806183
 O   -6.141549882999    1.273968569662    0.002453173287
 N   -3.829521173302    1.324601827371    0.002526709505
 H   -3.819705376179    0.306316715505    0.002499405410
 C   -2.568266884069    1.960657314334    0.002543804341
 O   -1.534573956001    1.291393479918    0.001798138677
 C   -2.649745675829    3.421204375724    0.002043906894
 H   -1.726345537527    3.998264634590    0.001703230117
 H   -5.947922917311    3.760937796730    0.002293209152
RB    5.096847583006   -3.002116213642   -0.002985509553
