13

 N   -5.080377997996    3.324716329104    0.002520968431
 C   -3.906638414913    4.052088520614    0.002208489261
 H   -4.024355274976    5.137406979658    0.002092641702
 C   -5.126153971076    1.931504537237    0.002135913862
 O   -6.177742139632    1.297401223396    0.002479280966
 N   -3.865713429935    1.348034481105    0.002552817184
 H   -3.855897632812    0.329749369239    0.002525513089
 C   -2.604459140702    1.984089968068    0.002569912020
 O   -1.570766212634    1.314826133652    0.001824246356
 C   -2.685937932462    3.444637029458    0.002070014573
 H   -1.762537794160    4.021697288324    0.001729337796
 H   -5.984115173944    3.784370450464    0.002319316831
RB    5.144597371171   -3.033031783878   -0.003019954383
