13

 N   -5.225147024526    3.418446944038    0.002625399146
 C   -4.051407441443    4.145819135548    0.002312919976
 H   -4.169124301506    5.231137594592    0.002197072417
 C   -5.270922997606    2.025235152171    0.002240344577
 O   -6.322511166162    1.391131838330    0.002583711681
 N   -4.010482456465    1.441765096039    0.002657247899
 H   -4.000666659342    0.423479984173    0.002629943804
 C   -2.749228167232    2.077820583002    0.002674342735
 O   -1.715535239164    1.408556748586    0.001928677071
 C   -2.830706958992    3.538367644392    0.002174445288
 H   -1.907306820690    4.115427903258    0.001833768511
 H   -6.128884200474    3.878101065398    0.002423747546
RB    5.335596523831   -3.156694064820   -0.003157733704
