13

 N   -5.261339281159    3.441879597771    0.002651506825
 C   -4.087599698076    4.169251789281    0.002339027655
 H   -4.205316558139    5.254570248325    0.002223180096
 C   -5.307115254239    2.048667805904    0.002266452256
 O   -6.358703422795    1.414564492063    0.002609819360
 N   -4.046674713098    1.465197749772    0.002683355578
 H   -4.036858915975    0.446912637906    0.002656051483
 C   -2.785420423865    2.101253236735    0.002700450414
 O   -1.751727495797    1.431989402319    0.001954784750
 C   -2.866899215625    3.561800298125    0.002200552967
 H   -1.943499077323    4.138860556991    0.001859876190
 H   -6.165076457107    3.901533719131    0.002449855225
RB    5.383346311996   -3.187609635056   -0.003192178534
