13

 N   -5.297531537792    3.465312251505    0.002677614504
 C   -4.123791954709    4.192684443015    0.002365135334
 H   -4.241508814772    5.278002902059    0.002249287775
 C   -5.343307510872    2.072100459638    0.002292559935
 O   -6.394895679428    1.437997145797    0.002635927039
 N   -4.082866969731    1.488630403506    0.002709463257
 H   -4.073051172608    0.470345291640    0.002682159162
 C   -2.821612680498    2.124685890469    0.002726558093
 O   -1.787919752430    1.455422056053    0.001980892429
 C   -2.903091472258    3.585232951859    0.002226660646
 H   -1.979691333956    4.162293210725    0.001885983869
 H   -6.201268713740    3.924966372865    0.002475962904
RB    5.431096100161   -3.218525205292   -0.003226623365
