13

 N   -5.333723794424    3.488744905238    0.002703722183
 C   -4.159984211341    4.216117096748    0.002391243013
 H   -4.277701071404    5.301435555792    0.002275395454
 C   -5.379499767504    2.095533113371    0.002318667614
 O   -6.431087936060    1.461429799530    0.002662034718
 N   -4.119059226363    1.512063057239    0.002735570936
 H   -4.109243429240    0.493777945373    0.002708266841
 C   -2.857804937130    2.148118544202    0.002752665772
 O   -1.824112009062    1.478854709786    0.002007000108
 C   -2.939283728890    3.608665605592    0.002252768325
 H   -2.015883590588    4.185725864458    0.001912091548
 H   -6.237460970372    3.948399026598    0.002502070583
RB    5.478845888326   -3.249440775527   -0.003261068195
