13

 N   -5.550877334220    3.629340827639    0.002860368257
 C   -4.377137751137    4.356713019149    0.002547889087
 H   -4.494854611200    5.442031478193    0.002432041528
 C   -5.596653307300    2.236129035772    0.002475313688
 O   -6.648241475856    1.602025721931    0.002818680792
 N   -4.336212766159    1.652658979640    0.002892217010
 H   -4.326396969036    0.634373867774    0.002864912915
 C   -3.074958476926    2.288714466603    0.002909311846
 O   -2.041265548858    1.619450632187    0.002163646182
 C   -3.156437268686    3.749261527993    0.002409414399
 H   -2.233037130384    4.326321786859    0.002068737622
 H   -6.454614510168    4.088994948999    0.002658716657
RB    5.765344617315   -3.434934196941   -0.003467737177
