13

 N   -5.587069590853    3.652773481373    0.002886475936
 C   -4.413330007770    4.380145672883    0.002573996766
 H   -4.531046867833    5.465464131927    0.002458149207
 C   -5.632845563933    2.259561689506    0.002501421367
 O   -6.684433732489    1.625458375665    0.002844788471
 N   -4.372405022792    1.676091633374    0.002918324689
 H   -4.362589225669    0.657806521508    0.002891020594
 C   -3.111150733559    2.312147120337    0.002935419525
 O   -2.077457805491    1.642883285921    0.002189753861
 C   -3.192629525319    3.772694181727    0.002435522078
 H   -2.269229387017    4.349754440593    0.002094845301
 H   -6.490806766801    4.112427602733    0.002684824336
RB    5.813094405480   -3.465849767177   -0.003502182007
