13

 N   -5.731838617384    3.746504096306    0.002990906651
 C   -4.558099034301    4.473876287816    0.002678427481
 H   -4.675815894364    5.559194746860    0.002562579922
 C   -5.777614590464    2.353292304439    0.002605852082
 O   -6.829202759020    1.719188990598    0.002949219186
 N   -4.517174049323    1.769822248307    0.003022755404
 H   -4.507358252200    0.751537136441    0.002995451309
 C   -3.255919760090    2.405877735270    0.003039850240
 O   -2.222226832022    1.736613900854    0.002294184576
 C   -3.337398551850    3.866424796660    0.002539952793
 H   -2.413998413548    4.443485055526    0.002199276016
 H   -6.635575793332    4.206158217666    0.002789255051
RB    6.004093558139   -3.589512048119   -0.003639961328
