26

 C    0.205865472839    2.813456349612    0.000000000000
 H    0.251305472839    3.911616349612    0.000000000000
 H    0.749245472839    2.477306349612    0.898510000000
 H    0.749245472839    2.477306349612   -0.898510000000
 C   -1.244604527161    2.368266349612    0.000000000000
 H   -1.780734527161    2.727956349612   -0.892170000000
 H   -1.780734527161    2.727956349612    0.892170000000
 O   -1.285984527161    0.898716349612    0.000000000000
 C   -2.673404527161    0.434726349612    0.000000000000
 H   -3.193244527161    0.801286349612   -0.896930000000
 H   -3.193244527161    0.801286349612    0.896930000000
 H   -2.647294527161   -0.662563650388    0.000000000000
NA    0.031985472839   -0.022353650388    1.748080000000
NA    0.031985472839   -0.022353650388   -1.748080000000
 O    1.261494334022   -0.881602136143    0.000000000000
 C    2.648915862381   -0.417614846288    0.000000000000
 H    3.168755487453   -0.784170959795    0.896927843394
 H    3.168755487453   -0.784170959795   -0.896927843394
 H    2.622803472217    0.679674497085    0.000000000000
 C    1.220116326808   -2.351149711902    0.000000000000
 H    1.756247095036   -2.710844809029    0.892164123949
 H    1.756247095036   -2.710844809029   -0.892164123949
 C   -0.230348806357   -2.796344568085    0.000000000000
 H   -0.275792407141   -3.894494697734    0.000000000000
 H   -0.773731706081   -2.460189691648   -0.898515094440
 H   -0.773731706081   -2.460189691648    0.898515094440
