26

 C    0.146589003641    2.854882009896    0.000000000000
 H    0.192029003641    3.953042009896    0.000000000000
 H    0.689969003641    2.518732009896    0.898510000000
 H    0.689969003641    2.518732009896   -0.898510000000
 C   -1.303880996359    2.409692009896    0.000000000000
 H   -1.840010996359    2.769382009896   -0.892170000000
 H   -1.840010996359    2.769382009896    0.892170000000
 O   -1.345260996359    0.940142009896    0.000000000000
 C   -2.732680996359    0.476152009896    0.000000000000
 H   -3.252520996359    0.842712009896   -0.896930000000
 H   -3.252520996359    0.842712009896    0.896930000000
 H   -2.706570996359   -0.621137990104    0.000000000000
NA   -0.027290996359    0.019072009896    1.748080000000
NA   -0.027290996359    0.019072009896   -1.748080000000
 O    1.366152379648   -0.954742940626    0.000000000000
 C    2.753573908007   -0.490755650772    0.000000000000
 H    3.273413533079   -0.857311764278    0.896927843394
 H    3.273413533079   -0.857311764278   -0.896927843394
 H    2.727461517843    0.606533692601    0.000000000000
 C    1.324774372434   -2.424290516385    0.000000000000
 H    1.860905140662   -2.783985613512    0.892164123949
 H    1.860905140662   -2.783985613512   -0.892164123949
 C   -0.125690760731   -2.869485372568    0.000000000000
 H   -0.171134361515   -3.967635502217    0.000000000000
 H   -0.669073660455   -2.533330496132   -0.898515094440
 H   -0.669073660455   -2.533330496132    0.898515094440
