26

 C    0.087312534442    2.896307670180    0.000000000000
 H    0.132752534442    3.994467670180    0.000000000000
 H    0.630692534442    2.560157670180    0.898510000000
 H    0.630692534442    2.560157670180   -0.898510000000
 C   -1.363157465558    2.451117670180    0.000000000000
 H   -1.899287465558    2.810807670180   -0.892170000000
 H   -1.899287465558    2.810807670180    0.892170000000
 O   -1.404537465558    0.981567670180    0.000000000000
 C   -2.791957465558    0.517577670180    0.000000000000
 H   -3.311797465558    0.884137670180   -0.896930000000
 H   -3.311797465558    0.884137670180    0.896930000000
 H   -2.765847465558   -0.579712329820    0.000000000000
NA   -0.086567465558    0.060497670180    1.748080000000
NA   -0.086567465558    0.060497670180   -1.748080000000
 O    1.470810425274   -1.027883745110    0.000000000000
 C    2.858231953633   -0.563896455255    0.000000000000
 H    3.378071578705   -0.930452568761    0.896927843394
 H    3.378071578705   -0.930452568761   -0.896927843394
 H    2.832119563469    0.533392888118    0.000000000000
 C    1.429432418060   -2.497431320868    0.000000000000
 H    1.965563186288   -2.857126417995    0.892164123949
 H    1.965563186288   -2.857126417995   -0.892164123949
 C   -0.021032715105   -2.942626177051    0.000000000000
 H   -0.066476315889   -4.040776306700    0.000000000000
 H   -0.564415614829   -2.606471300615   -0.898515094440
 H   -0.564415614829   -2.606471300615    0.898515094440
