26

 C    0.028036065244    2.937733330464    0.000000000000
 H    0.073476065244    4.035893330464    0.000000000000
 H    0.571416065244    2.601583330464    0.898510000000
 H    0.571416065244    2.601583330464   -0.898510000000
 C   -1.422433934756    2.492543330464    0.000000000000
 H   -1.958563934756    2.852233330464   -0.892170000000
 H   -1.958563934756    2.852233330464    0.892170000000
 O   -1.463813934756    1.022993330464    0.000000000000
 C   -2.851233934756    0.559003330464    0.000000000000
 H   -3.371073934756    0.925563330464   -0.896930000000
 H   -3.371073934756    0.925563330464    0.896930000000
 H   -2.825123934756   -0.538286669536    0.000000000000
NA   -0.145843934756    0.101923330464    1.748080000000
NA   -0.145843934756    0.101923330464   -1.748080000000
 O    1.575468470900   -1.101024549593    0.000000000000
 C    2.962889999259   -0.637037259738    0.000000000000
 H    3.482729624331   -1.003593373244    0.896927843394
 H    3.482729624331   -1.003593373244   -0.896927843394
 H    2.936777609095    0.460252083635    0.000000000000
 C    1.534090463686   -2.570572125352    0.000000000000
 H    2.070221231914   -2.930267222478    0.892164123949
 H    2.070221231914   -2.930267222478   -0.892164123949
 C    0.083625330520   -3.015766981535    0.000000000000
 H    0.038181729737   -4.113917111184    0.000000000000
 H   -0.459757569203   -2.679612105098   -0.898515094440
 H   -0.459757569203   -2.679612105098    0.898515094440
