26

 C   -0.031240403955    2.979158990748    0.000000000000
 H    0.014199596045    4.077318990748    0.000000000000
 H    0.512139596045    2.643008990748    0.898510000000
 H    0.512139596045    2.643008990748   -0.898510000000
 C   -1.481710403955    2.533968990748    0.000000000000
 H   -2.017840403955    2.893658990748   -0.892170000000
 H   -2.017840403955    2.893658990748    0.892170000000
 O   -1.523090403955    1.064418990748    0.000000000000
 C   -2.910510403955    0.600428990748    0.000000000000
 H   -3.430350403955    0.966988990748   -0.896930000000
 H   -3.430350403955    0.966988990748    0.896930000000
 H   -2.884400403955   -0.496861009252    0.000000000000
NA   -0.205120403955    0.143348990748    1.748080000000
NA   -0.205120403955    0.143348990748   -1.748080000000
 O    1.680126516526   -1.174165354076    0.000000000000
 C    3.067548044885   -0.710178064221    0.000000000000
 H    3.587387669957   -1.076734177727    0.896927843394
 H    3.587387669957   -1.076734177727   -0.896927843394
 H    3.041435654721    0.387111279152    0.000000000000
 C    1.638748509312   -2.643712929835    0.000000000000
 H    2.174879277540   -3.003408026962    0.892164123949
 H    2.174879277540   -3.003408026962   -0.892164123949
 C    0.188283376146   -3.088907786018    0.000000000000
 H    0.142839775363   -4.187057915667    0.000000000000
 H   -0.355099523577   -2.752752909581   -0.898515094440
 H   -0.355099523577   -2.752752909581    0.898515094440
