26

 C   -0.060878638554    2.999871820890    0.000000000000
 H   -0.015438638554    4.098031820890    0.000000000000
 H    0.482501361446    2.663721820890    0.898510000000
 H    0.482501361446    2.663721820890   -0.898510000000
 C   -1.511348638554    2.554681820890    0.000000000000
 H   -2.047478638554    2.914371820890   -0.892170000000
 H   -2.047478638554    2.914371820890    0.892170000000
 O   -1.552728638554    1.085131820890    0.000000000000
 C   -2.940148638554    0.621141820890    0.000000000000
 H   -3.459988638554    0.987701820890   -0.896930000000
 H   -3.459988638554    0.987701820890    0.896930000000
 H   -2.914038638554   -0.476148179110    0.000000000000
NA   -0.234758638554    0.164061820890    1.748080000000
NA   -0.234758638554    0.164061820890   -1.748080000000
 O    1.732455539339   -1.210735756317    0.000000000000
 C    3.119877067698   -0.746748466463    0.000000000000
 H    3.639716692770   -1.113304579969    0.896927843394
 H    3.639716692770   -1.113304579969   -0.896927843394
 H    3.093764677534    0.350540876910    0.000000000000
 C    1.691077532125   -2.680283332076    0.000000000000
 H    2.227208300353   -3.039978429203    0.892164123949
 H    2.227208300353   -3.039978429203   -0.892164123949
 C    0.240612398959   -3.125478188259    0.000000000000
 H    0.195168798176   -4.223628317908    0.000000000000
 H   -0.302770500764   -2.789323311823   -0.898515094440
 H   -0.302770500764   -2.789323311823    0.898515094440
