26

 C   -0.149793342352    3.062010311316    0.000000000000
 H   -0.104353342352    4.160170311316    0.000000000000
 H    0.393586657648    2.725860311316    0.898510000000
 H    0.393586657648    2.725860311316   -0.898510000000
 C   -1.600263342352    2.616820311316    0.000000000000
 H   -2.136393342352    2.976510311316   -0.892170000000
 H   -2.136393342352    2.976510311316    0.892170000000
 O   -1.641643342352    1.147270311316    0.000000000000
 C   -3.029063342352    0.683280311316    0.000000000000
 H   -3.548903342352    1.049840311316   -0.896930000000
 H   -3.548903342352    1.049840311316    0.896930000000
 H   -3.002953342352   -0.414009688684    0.000000000000
NA   -0.323673342352    0.226200311316    1.748080000000
NA   -0.323673342352    0.226200311316   -1.748080000000
 O    1.889442607778   -1.320446963042    0.000000000000
 C    3.276864136137   -0.856459673187    0.000000000000
 H    3.796703761209   -1.223015786694    0.896927843394
 H    3.796703761209   -1.223015786694   -0.896927843394
 H    3.250751745973    0.240829670186    0.000000000000
 C    1.848064600564   -2.789994538801    0.000000000000
 H    2.384195368792   -3.149689635928    0.892164123949
 H    2.384195368792   -3.149689635928   -0.892164123949
 C    0.397599467398   -3.235189394984    0.000000000000
 H    0.352155866615   -4.333339524633    0.000000000000
 H   -0.145783432325   -2.899034518547   -0.898515094440
 H   -0.145783432325   -2.899034518547    0.898515094440
