26

 C   -0.179431576951    3.082723141458    0.000000000000
 H   -0.133991576951    4.180883141458    0.000000000000
 H    0.363948423049    2.746573141458    0.898510000000
 H    0.363948423049    2.746573141458   -0.898510000000
 C   -1.629901576951    2.637533141458    0.000000000000
 H   -2.166031576951    2.997223141458   -0.892170000000
 H   -2.166031576951    2.997223141458    0.892170000000
 O   -1.671281576951    1.167983141458    0.000000000000
 C   -3.058701576951    0.703993141458    0.000000000000
 H   -3.578541576951    1.070553141458   -0.896930000000
 H   -3.578541576951    1.070553141458    0.896930000000
 H   -3.032591576951   -0.393296858542    0.000000000000
NA   -0.353311576951    0.246913141458    1.748080000000
NA   -0.353311576951    0.246913141458   -1.748080000000
 O    1.941771630591   -1.357017365284    0.000000000000
 C    3.329193158950   -0.893030075429    0.000000000000
 H    3.849032784022   -1.259586188935    0.896927843394
 H    3.849032784022   -1.259586188935   -0.896927843394
 H    3.303080768786    0.204259267944    0.000000000000
 C    1.900393623377   -2.826564941043    0.000000000000
 H    2.436524391605   -3.186260038169    0.892164123949
 H    2.436524391605   -3.186260038169   -0.892164123949
 C    0.449928490211   -3.271759797226    0.000000000000
 H    0.404484889428   -4.369909926875    0.000000000000
 H   -0.093454409512   -2.935604920789   -0.898515094440
 H   -0.093454409512   -2.935604920789    0.898515094440
