26

 C   -0.268346280749    3.144861631885    0.000000000000
 H   -0.222906280749    4.243021631885    0.000000000000
 H    0.275033719251    2.808711631885    0.898510000000
 H    0.275033719251    2.808711631885   -0.898510000000
 C   -1.718816280749    2.699671631885    0.000000000000
 H   -2.254946280749    3.059361631885   -0.892170000000
 H   -2.254946280749    3.059361631885    0.892170000000
 O   -1.760196280749    1.230121631885    0.000000000000
 C   -3.147616280749    0.766131631885    0.000000000000
 H   -3.667456280749    1.132691631885   -0.896930000000
 H   -3.667456280749    1.132691631885    0.896930000000
 H   -3.121506280749   -0.331158368115    0.000000000000
NA   -0.442226280749    0.309051631885    1.748080000000
NA   -0.442226280749    0.309051631885   -1.748080000000
 O    2.098758699030   -1.466728572009    0.000000000000
 C    3.486180227389   -1.002741282154    0.000000000000
 H    4.006019852461   -1.369297395660    0.896927843394
 H    4.006019852461   -1.369297395660   -0.896927843394
 H    3.460067837225    0.094548061219    0.000000000000
 C    2.057380691815   -2.936276147767    0.000000000000
 H    2.593511460044   -3.295971244894    0.892164123949
 H    2.593511460044   -3.295971244894   -0.892164123949
 C    0.606915558650   -3.381471003950    0.000000000000
 H    0.561471957867   -4.479621133599    0.000000000000
 H    0.063532658926   -3.045316127514   -0.898515094440
 H    0.063532658926   -3.045316127514    0.898515094440
