26

 C   -0.327622749948    3.186287292169    0.000000000000
 H   -0.282182749948    4.284447292169    0.000000000000
 H    0.215757250052    2.850137292169    0.898510000000
 H    0.215757250052    2.850137292169   -0.898510000000
 C   -1.778092749948    2.741097292169    0.000000000000
 H   -2.314222749948    3.100787292169   -0.892170000000
 H   -2.314222749948    3.100787292169    0.892170000000
 O   -1.819472749948    1.271547292169    0.000000000000
 C   -3.206892749948    0.807557292169    0.000000000000
 H   -3.726732749948    1.174117292169   -0.896930000000
 H   -3.726732749948    1.174117292169    0.896930000000
 H   -3.180782749948   -0.289732707831    0.000000000000
NA   -0.501502749948    0.350477292169    1.748080000000
NA   -0.501502749948    0.350477292169   -1.748080000000
 O    2.203416744656   -1.539869376492    0.000000000000
 C    3.590838273014   -1.075882086637    0.000000000000
 H    4.110677898087   -1.442438200143    0.896927843394
 H    4.110677898087   -1.442438200143   -0.896927843394
 H    3.564725882851    0.021407256736    0.000000000000
 C    2.162038737441   -3.009416952251    0.000000000000
 H    2.698169505670   -3.369112049377    0.892164123949
 H    2.698169505670   -3.369112049377   -0.892164123949
 C    0.711573604276   -3.454611808434    0.000000000000
 H    0.666130003493   -4.552761938083    0.000000000000
 H    0.168190704552   -3.118456931997   -0.898515094440
 H    0.168190704552   -3.118456931997    0.898515094440
