26

 C   -0.475813922944    3.289851442879    0.000000000000
 H   -0.430373922944    4.388011442879    0.000000000000
 H    0.067566077056    2.953701442879    0.898510000000
 H    0.067566077056    2.953701442879   -0.898510000000
 C   -1.926283922944    2.844661442879    0.000000000000
 H   -2.462413922944    3.204351442879   -0.892170000000
 H   -2.462413922944    3.204351442879    0.892170000000
 O   -1.967663922944    1.375111442879    0.000000000000
 C   -3.355083922944    0.911121442879    0.000000000000
 H   -3.874923922944    1.277681442879   -0.896930000000
 H   -3.874923922944    1.277681442879    0.896930000000
 H   -3.328973922944   -0.186168557121    0.000000000000
NA   -0.649693922944    0.454041442879    1.748080000000
NA   -0.649693922944    0.454041442879   -1.748080000000
 O    2.465061858721   -1.722721387700    0.000000000000
 C    3.852483387079   -1.258734097845    0.000000000000
 H    4.372323012151   -1.625290211351    0.896927843394
 H    4.372323012151   -1.625290211351   -0.896927843394
 H    3.826370996915   -0.161444754472    0.000000000000
 C    2.423683851506   -3.192268963459    0.000000000000
 H    2.959814619734   -3.551964060585    0.892164123949
 H    2.959814619734   -3.551964060585   -0.892164123949
 C    0.973218718341   -3.637463819642    0.000000000000
 H    0.927775117558   -4.735613949290    0.000000000000
 H    0.429835818617   -3.301308943205   -0.898515094440
 H    0.429835818617   -3.301308943205    0.898515094440
