26

 C   -0.535090392142    3.331277103163    0.000000000000
 H   -0.489650392142    4.429437103163    0.000000000000
 H    0.008289607858    2.995127103163    0.898510000000
 H    0.008289607858    2.995127103163   -0.898510000000
 C   -1.985560392142    2.886087103163    0.000000000000
 H   -2.521690392142    3.245777103163   -0.892170000000
 H   -2.521690392142    3.245777103163    0.892170000000
 O   -2.026940392142    1.416537103163    0.000000000000
 C   -3.414360392142    0.952547103163    0.000000000000
 H   -3.934200392142    1.319107103163   -0.896930000000
 H   -3.934200392142    1.319107103163    0.896930000000
 H   -3.388250392142   -0.144742896837    0.000000000000
NA   -0.708970392142    0.495467103163    1.748080000000
NA   -0.708970392142    0.495467103163   -1.748080000000
 O    2.569719904347   -1.795862192183    0.000000000000
 C    3.957141432705   -1.331874902328    0.000000000000
 H    4.476981057777   -1.698431015834    0.896927843394
 H    4.476981057777   -1.698431015834   -0.896927843394
 H    3.931029042541   -0.234585558955    0.000000000000
 C    2.528341897132   -3.265409767942    0.000000000000
 H    3.064472665360   -3.625104865068    0.892164123949
 H    3.064472665360   -3.625104865068   -0.892164123949
 C    1.077876763967   -3.710604624125    0.000000000000
 H    1.032433163183   -4.808754753774    0.000000000000
 H    0.534493864243   -3.374449747688   -0.898515094440
 H    0.534493864243   -3.374449747688    0.898515094440
