26

 C   -0.683281565139    3.434841253873    0.000000000000
 H   -0.637841565139    4.533001253873    0.000000000000
 H   -0.139901565139    3.098691253873    0.898510000000
 H   -0.139901565139    3.098691253873   -0.898510000000
 C   -2.133751565139    2.989651253873    0.000000000000
 H   -2.669881565139    3.349341253873   -0.892170000000
 H   -2.669881565139    3.349341253873    0.892170000000
 O   -2.175131565139    1.520101253873    0.000000000000
 C   -3.562551565139    1.056111253873    0.000000000000
 H   -4.082391565139    1.422671253873   -0.896930000000
 H   -4.082391565139    1.422671253873    0.896930000000
 H   -3.536441565139   -0.041178746127    0.000000000000
NA   -0.857161565139    0.599031253873    1.748080000000
NA   -0.857161565139    0.599031253873   -1.748080000000
 O    2.831365018411   -1.978714203391    0.000000000000
 C    4.218786546770   -1.514726913536    0.000000000000
 H    4.738626171842   -1.881283027042    0.896927843394
 H    4.738626171842   -1.881283027042   -0.896927843394
 H    4.192674156606   -0.417437570163    0.000000000000
 C    2.789987011197   -3.448261779150    0.000000000000
 H    3.326117779425   -3.807956876276    0.892164123949
 H    3.326117779425   -3.807956876276   -0.892164123949
 C    1.339521878032   -3.893456635333    0.000000000000
 H    1.294078277248   -4.991606764982    0.000000000000
 H    0.796138978308   -3.557301758896   -0.898515094440
 H    0.796138978308   -3.557301758896    0.898515094440
