26

 C   -0.772196268936    3.496979744300    0.000000000000
 H   -0.726756268936    4.595139744300    0.000000000000
 H   -0.228816268936    3.160829744300    0.898510000000
 H   -0.228816268936    3.160829744300   -0.898510000000
 C   -2.222666268936    3.051789744300    0.000000000000
 H   -2.758796268936    3.411479744300   -0.892170000000
 H   -2.758796268936    3.411479744300    0.892170000000
 O   -2.264046268936    1.582239744300    0.000000000000
 C   -3.651466268936    1.118249744300    0.000000000000
 H   -4.171306268936    1.484809744300   -0.896930000000
 H   -4.171306268936    1.484809744300    0.896930000000
 H   -3.625356268936    0.020959744300    0.000000000000
NA   -0.946076268936    0.661169744300    1.748080000000
NA   -0.946076268936    0.661169744300   -1.748080000000
 O    2.988352086850   -2.088425410115    0.000000000000
 C    4.375773615209   -1.624438120261    0.000000000000
 H    4.895613240281   -1.990994233767    0.896927843394
 H    4.895613240281   -1.990994233767   -0.896927843394
 H    4.349661225045   -0.527148776888    0.000000000000
 C    2.946974079636   -3.557972985874    0.000000000000
 H    3.483104847864   -3.917668083001    0.892164123949
 H    3.483104847864   -3.917668083001   -0.892164123949
 C    1.496508946471   -4.003167842057    0.000000000000
 H    1.451065345687   -5.101317971706    0.000000000000
 H    0.953126046747   -3.667012965621   -0.898515094440
 H    0.953126046747   -3.667012965621    0.898515094440
