26

 C   -0.801834503536    3.517692574442    0.000000000000
 H   -0.756394503536    4.615852574442    0.000000000000
 H   -0.258454503536    3.181542574442    0.898510000000
 H   -0.258454503536    3.181542574442   -0.898510000000
 C   -2.252304503536    3.072502574442    0.000000000000
 H   -2.788434503536    3.432192574442   -0.892170000000
 H   -2.788434503536    3.432192574442    0.892170000000
 O   -2.293684503536    1.602952574442    0.000000000000
 C   -3.681104503536    1.138962574442    0.000000000000
 H   -4.200944503536    1.505522574442   -0.896930000000
 H   -4.200944503536    1.505522574442    0.896930000000
 H   -3.654994503536    0.041672574442    0.000000000000
NA   -0.975714503536    0.681882574442    1.748080000000
NA   -0.975714503536    0.681882574442   -1.748080000000
 O    3.040681109663   -2.124995812357    0.000000000000
 C    4.428102638022   -1.661008522502    0.000000000000
 H    4.947942263094   -2.027564636008    0.896927843394
 H    4.947942263094   -2.027564636008   -0.896927843394
 H    4.401990247858   -0.563719179129    0.000000000000
 C    2.999303102449   -3.594543388116    0.000000000000
 H    3.535433870677   -3.954238485243    0.892164123949
 H    3.535433870677   -3.954238485243   -0.892164123949
 C    1.548837969284   -4.039738244299    0.000000000000
 H    1.503394368500   -5.137888373948    0.000000000000
 H    1.005455069560   -3.703583367862   -0.898515094440
 H    1.005455069560   -3.703583367862    0.898515094440
