26

 C   -0.831472738135    3.538405404584    0.000000000000
 H   -0.786032738135    4.636565404584    0.000000000000
 H   -0.288092738135    3.202255404584    0.898510000000
 H   -0.288092738135    3.202255404584   -0.898510000000
 C   -2.281942738135    3.093215404584    0.000000000000
 H   -2.818072738135    3.452905404584   -0.892170000000
 H   -2.818072738135    3.452905404584    0.892170000000
 O   -2.323322738135    1.623665404584    0.000000000000
 C   -3.710742738135    1.159675404584    0.000000000000
 H   -4.230582738135    1.526235404584   -0.896930000000
 H   -4.230582738135    1.526235404584    0.896930000000
 H   -3.684632738135    0.062385404584    0.000000000000
NA   -1.005352738135    0.702595404584    1.748080000000
NA   -1.005352738135    0.702595404584   -1.748080000000
 O    3.093010132476   -2.161566214599    0.000000000000
 C    4.480431660835   -1.697578924744    0.000000000000
 H    5.000271285907   -2.064135038250    0.896927843394
 H    5.000271285907   -2.064135038250   -0.896927843394
 H    4.454319270671   -0.600289581371    0.000000000000
 C    3.051632125262   -3.631113790358    0.000000000000
 H    3.587762893490   -3.990808887484    0.892164123949
 H    3.587762893490   -3.990808887484   -0.892164123949
 C    1.601166992097   -4.076308646541    0.000000000000
 H    1.555723391313   -5.174458776189    0.000000000000
 H    1.057784092373   -3.740153770104   -0.898515094440
 H    1.057784092373   -3.740153770104    0.898515094440
