26

 C   -0.861110972734    3.559118234726    0.000000000000
 H   -0.815670972734    4.657278234726    0.000000000000
 H   -0.317730972734    3.222968234726    0.898510000000
 H   -0.317730972734    3.222968234726   -0.898510000000
 C   -2.311580972734    3.113928234726    0.000000000000
 H   -2.847710972734    3.473618234726   -0.892170000000
 H   -2.847710972734    3.473618234726    0.892170000000
 O   -2.352960972734    1.644378234726    0.000000000000
 C   -3.740380972734    1.180388234726    0.000000000000
 H   -4.260220972734    1.546948234726   -0.896930000000
 H   -4.260220972734    1.546948234726    0.896930000000
 H   -3.714270972734    0.083098234726    0.000000000000
NA   -1.034990972734    0.723308234726    1.748080000000
NA   -1.034990972734    0.723308234726   -1.748080000000
 O    3.145339155289   -2.198136616840    0.000000000000
 C    4.532760683648   -1.734149326985    0.000000000000
 H    5.052600308720   -2.100705440492    0.896927843394
 H    5.052600308720   -2.100705440492   -0.896927843394
 H    4.506648293484   -0.636859983612    0.000000000000
 C    3.103961148075   -3.667684192599    0.000000000000
 H    3.640091916303   -4.027379289726    0.892164123949
 H    3.640091916303   -4.027379289726   -0.892164123949
 C    1.653496014909   -4.112879048782    0.000000000000
 H    1.608052414126   -5.211029178431    0.000000000000
 H    1.110113115186   -3.776724172345   -0.898515094440
 H    1.110113115186   -3.776724172345    0.898515094440
