26

 C   -0.920387441933    3.600543895010    0.000000000000
 H   -0.874947441933    4.698703895010    0.000000000000
 H   -0.377007441933    3.264393895010    0.898510000000
 H   -0.377007441933    3.264393895010   -0.898510000000
 C   -2.370857441933    3.155353895010    0.000000000000
 H   -2.906987441933    3.515043895010   -0.892170000000
 H   -2.906987441933    3.515043895010    0.892170000000
 O   -2.412237441933    1.685803895010    0.000000000000
 C   -3.799657441933    1.221813895010    0.000000000000
 H   -4.319497441933    1.588373895010   -0.896930000000
 H   -4.319497441933    1.588373895010    0.896930000000
 H   -3.773547441933    0.124523895010    0.000000000000
NA   -1.094267441933    0.764733895010    1.748080000000
NA   -1.094267441933    0.764733895010   -1.748080000000
 O    3.249997200915   -2.271277421323    0.000000000000
 C    4.637418729274   -1.807290131469    0.000000000000
 H    5.157258354346   -2.173846244975    0.896927843394
 H    5.157258354346   -2.173846244975   -0.896927843394
 H    4.611306339110   -0.710000788096    0.000000000000
 C    3.208619193701   -3.740824997082    0.000000000000
 H    3.744749961929   -4.100520094209    0.892164123949
 H    3.744749961929   -4.100520094209   -0.892164123949
 C    1.758154060535   -4.186019853265    0.000000000000
 H    1.712710459752   -5.284169982914    0.000000000000
 H    1.214771160812   -3.849864976829   -0.898515094440
 H    1.214771160812   -3.849864976829    0.898515094440
