26

 C   -0.979663911131    3.641969555294    0.000000000000
 H   -0.934223911131    4.740129555294    0.000000000000
 H   -0.436283911131    3.305819555294    0.898510000000
 H   -0.436283911131    3.305819555294   -0.898510000000
 C   -2.430133911131    3.196779555294    0.000000000000
 H   -2.966263911131    3.556469555294   -0.892170000000
 H   -2.966263911131    3.556469555294    0.892170000000
 O   -2.471513911131    1.727229555294    0.000000000000
 C   -3.858933911131    1.263239555294    0.000000000000
 H   -4.378773911131    1.629799555294   -0.896930000000
 H   -4.378773911131    1.629799555294    0.896930000000
 H   -3.832823911131    0.165949555294    0.000000000000
NA   -1.153543911131    0.806159555294    1.748080000000
NA   -1.153543911131    0.806159555294   -1.748080000000
 O    3.354655246541   -2.344418225807    0.000000000000
 C    4.742076774900   -1.880430935952    0.000000000000
 H    5.261916399972   -2.246987049458    0.896927843394
 H    5.261916399972   -2.246987049458   -0.896927843394
 H    4.715964384736   -0.783141592579    0.000000000000
 C    3.313277239327   -3.813965801565    0.000000000000
 H    3.849408007555   -4.173660898692    0.892164123949
 H    3.849408007555   -4.173660898692   -0.892164123949
 C    1.862812106161   -4.259160657748    0.000000000000
 H    1.817368505378   -5.357310787397    0.000000000000
 H    1.319429206438   -3.923005781312   -0.898515094440
 H    1.319429206438   -3.923005781312    0.898515094440
