26

 C   -1.009302145730    3.662682385436    0.000000000000
 H   -0.963862145730    4.760842385436    0.000000000000
 H   -0.465922145730    3.326532385436    0.898510000000
 H   -0.465922145730    3.326532385436   -0.898510000000
 C   -2.459772145730    3.217492385436    0.000000000000
 H   -2.995902145730    3.577182385436   -0.892170000000
 H   -2.995902145730    3.577182385436    0.892170000000
 O   -2.501152145730    1.747942385436    0.000000000000
 C   -3.888572145730    1.283952385436    0.000000000000
 H   -4.408412145730    1.650512385436   -0.896930000000
 H   -4.408412145730    1.650512385436    0.896930000000
 H   -3.862462145730    0.186662385436    0.000000000000
NA   -1.183182145730    0.826872385436    1.748080000000
NA   -1.183182145730    0.826872385436   -1.748080000000
 O    3.406984269354   -2.380988628048    0.000000000000
 C    4.794405797713   -1.917001338193    0.000000000000
 H    5.314245422785   -2.283557451699    0.896927843394
 H    5.314245422785   -2.283557451699   -0.896927843394
 H    4.768293407549   -0.819711994820    0.000000000000
 C    3.365606262140   -3.850536203807    0.000000000000
 H    3.901737030368   -4.210231300934    0.892164123949
 H    3.901737030368   -4.210231300934   -0.892164123949
 C    1.915141128974   -4.295731059990    0.000000000000
 H    1.869697528191   -5.393881189639    0.000000000000
 H    1.371758229251   -3.959576183553   -0.898515094440
 H    1.371758229251   -3.959576183553    0.898515094440
