26

 C   -1.038940380330    3.683395215578    0.000000000000
 H   -0.993500380330    4.781555215578    0.000000000000
 H   -0.495560380330    3.347245215578    0.898510000000
 H   -0.495560380330    3.347245215578   -0.898510000000
 C   -2.489410380330    3.238205215578    0.000000000000
 H   -3.025540380330    3.597895215578   -0.892170000000
 H   -3.025540380330    3.597895215578    0.892170000000
 O   -2.530790380330    1.768655215578    0.000000000000
 C   -3.918210380330    1.304665215578    0.000000000000
 H   -4.438050380330    1.671225215578   -0.896930000000
 H   -4.438050380330    1.671225215578    0.896930000000
 H   -3.892100380330    0.207375215578    0.000000000000
NA   -1.212820380330    0.847585215578    1.748080000000
NA   -1.212820380330    0.847585215578   -1.748080000000
 O    3.459313292167   -2.417559030290    0.000000000000
 C    4.846734820526   -1.953571740435    0.000000000000
 H    5.366574445598   -2.320127853941    0.896927843394
 H    5.366574445598   -2.320127853941   -0.896927843394
 H    4.820622430362   -0.856282397062    0.000000000000
 C    3.417935284953   -3.887106606049    0.000000000000
 H    3.954066053181   -4.246801703175    0.892164123949
 H    3.954066053181   -4.246801703175   -0.892164123949
 C    1.967470151787   -4.332301462232    0.000000000000
 H    1.922026551004   -5.430451591881    0.000000000000
 H    1.424087252064   -3.996146585795   -0.898515094440
 H    1.424087252064   -3.996146585795    0.898515094440
