26

 C   -1.098216849528    3.724820875862    0.000000000000
 H   -1.052776849528    4.822980875862    0.000000000000
 H   -0.554836849528    3.388670875862    0.898510000000
 H   -0.554836849528    3.388670875862   -0.898510000000
 C   -2.548686849528    3.279630875862    0.000000000000
 H   -3.084816849528    3.639320875862   -0.892170000000
 H   -3.084816849528    3.639320875862    0.892170000000
 O   -2.590066849528    1.810080875862    0.000000000000
 C   -3.977486849528    1.346090875862    0.000000000000
 H   -4.497326849528    1.712650875862   -0.896930000000
 H   -4.497326849528    1.712650875862    0.896930000000
 H   -3.951376849528    0.248800875862    0.000000000000
NA   -1.272096849528    0.889010875862    1.748080000000
NA   -1.272096849528    0.889010875862   -1.748080000000
 O    3.563971337793   -2.490699834773    0.000000000000
 C    4.951392866152   -2.026712544918    0.000000000000
 H    5.471232491224   -2.393268658424    0.896927843394
 H    5.471232491224   -2.393268658424   -0.896927843394
 H    4.925280475988   -0.929423201545    0.000000000000
 C    3.522593330579   -3.960247410532    0.000000000000
 H    4.058724098807   -4.319942507659    0.892164123949
 H    4.058724098807   -4.319942507659   -0.892164123949
 C    2.072128197413   -4.405442266715    0.000000000000
 H    2.026684596630   -5.503592396364    0.000000000000
 H    1.528745297690   -4.069287390278   -0.898515094440
 H    1.528745297690   -4.069287390278    0.898515094440
