26

 C   -1.187131553326    3.786959366288    0.000000000000
 H   -1.141691553326    4.885119366288    0.000000000000
 H   -0.643751553326    3.450809366288    0.898510000000
 H   -0.643751553326    3.450809366288   -0.898510000000
 C   -2.637601553326    3.341769366288    0.000000000000
 H   -3.173731553326    3.701459366288   -0.892170000000
 H   -3.173731553326    3.701459366288    0.892170000000
 O   -2.678981553326    1.872219366288    0.000000000000
 C   -4.066401553326    1.408229366288    0.000000000000
 H   -4.586241553326    1.774789366288   -0.896930000000
 H   -4.586241553326    1.774789366288    0.896930000000
 H   -4.040291553326    0.310939366288    0.000000000000
NA   -1.361011553326    0.951149366288    1.748080000000
NA   -1.361011553326    0.951149366288   -1.748080000000
 O    3.720958406232   -2.600411041498    0.000000000000
 C    5.108379934591   -2.136423751643    0.000000000000
 H    5.628219559663   -2.502979865149    0.896927843394
 H    5.628219559663   -2.502979865149   -0.896927843394
 H    5.082267544427   -1.039134408270    0.000000000000
 C    3.679580399017   -4.069958617257    0.000000000000
 H    4.215711167246   -4.429653714383    0.892164123949
 H    4.215711167246   -4.429653714383   -0.892164123949
 C    2.229115265852   -4.515153473440    0.000000000000
 H    2.183671665069   -5.613303603088    0.000000000000
 H    1.685732366128   -4.178998597003   -0.898515094440
 H    1.685732366128   -4.178998597003    0.898515094440
