26

 C   -1.216769787925    3.807672196431    0.000000000000
 H   -1.171329787925    4.905832196431    0.000000000000
 H   -0.673389787925    3.471522196431    0.898510000000
 H   -0.673389787925    3.471522196431   -0.898510000000
 C   -2.667239787925    3.362482196431    0.000000000000
 H   -3.203369787925    3.722172196431   -0.892170000000
 H   -3.203369787925    3.722172196431    0.892170000000
 O   -2.708619787925    1.892932196431    0.000000000000
 C   -4.096039787925    1.428942196431    0.000000000000
 H   -4.615879787925    1.795502196431   -0.896930000000
 H   -4.615879787925    1.795502196431    0.896930000000
 H   -4.069929787925    0.331652196431    0.000000000000
NA   -1.390649787925    0.971862196431    1.748080000000
NA   -1.390649787925    0.971862196431   -1.748080000000
 O    3.773287429045   -2.636981443739    0.000000000000
 C    5.160708957403   -2.172994153884    0.000000000000
 H    5.680548582476   -2.539550267391    0.896927843394
 H    5.680548582476   -2.539550267391   -0.896927843394
 H    5.134596567240   -1.075704810511    0.000000000000
 C    3.731909421830   -4.106529019498    0.000000000000
 H    4.268040190059   -4.466224116625    0.892164123949
 H    4.268040190059   -4.466224116625   -0.892164123949
 C    2.281444288665   -4.551723875681    0.000000000000
 H    2.236000687882   -5.649874005330    0.000000000000
 H    1.738061388941   -4.215568999244   -0.898515094440
 H    1.738061388941   -4.215568999244    0.898515094440
