26

 C   -1.364960960921    3.911236347141    0.000000000000
 H   -1.319520960921    5.009396347141    0.000000000000
 H   -0.821580960921    3.575086347141    0.898510000000
 H   -0.821580960921    3.575086347141   -0.898510000000
 C   -2.815430960921    3.466046347141    0.000000000000
 H   -3.351560960921    3.825736347141   -0.892170000000
 H   -3.351560960921    3.825736347141    0.892170000000
 O   -2.856810960921    1.996496347141    0.000000000000
 C   -4.244230960921    1.532506347141    0.000000000000
 H   -4.764070960921    1.899066347141   -0.896930000000
 H   -4.764070960921    1.899066347141    0.896930000000
 H   -4.218120960921    0.435216347141    0.000000000000
NA   -1.538840960921    1.075426347141    1.748080000000
NA   -1.538840960921    1.075426347141   -1.748080000000
 O    4.034932543110   -2.819833454947    0.000000000000
 C    5.422354071468   -2.355846165092    0.000000000000
 H    5.942193696540   -2.722402278598    0.896927843394
 H    5.942193696540   -2.722402278598   -0.896927843394
 H    5.396241681304   -1.258556821719    0.000000000000
 C    3.993554535895   -4.289381030706    0.000000000000
 H    4.529685304123   -4.649076127833    0.892164123949
 H    4.529685304123   -4.649076127833   -0.892164123949
 C    2.543089402730   -4.734575886889    0.000000000000
 H    2.497645801947   -5.832726016538    0.000000000000
 H    1.999706503006   -4.398421010452   -0.898515094440
 H    1.999706503006   -4.398421010452    0.898515094440
