26

 C   -1.453875664719    3.973374837567    0.000000000000
 H   -1.408435664719    5.071534837567    0.000000000000
 H   -0.910495664719    3.637224837567    0.898510000000
 H   -0.910495664719    3.637224837567   -0.898510000000
 C   -2.904345664719    3.528184837567    0.000000000000
 H   -3.440475664719    3.887874837567   -0.892170000000
 H   -3.440475664719    3.887874837567    0.892170000000
 O   -2.945725664719    2.058634837567    0.000000000000
 C   -4.333145664719    1.594644837567    0.000000000000
 H   -4.852985664719    1.961204837567   -0.896930000000
 H   -4.852985664719    1.961204837567    0.896930000000
 H   -4.307035664719    0.497354837567    0.000000000000
NA   -1.627755664719    1.137564837567    1.748080000000
NA   -1.627755664719    1.137564837567   -1.748080000000
 O    4.191919611549   -2.929544661672    0.000000000000
 C    5.579341139907   -2.465557371817    0.000000000000
 H    6.099180764979   -2.832113485323    0.896927843394
 H    6.099180764979   -2.832113485323   -0.896927843394
 H    5.553228749743   -1.368268028444    0.000000000000
 C    4.150541604334   -4.399092237431    0.000000000000
 H    4.686672372562   -4.758787334558    0.892164123949
 H    4.686672372562   -4.758787334558   -0.892164123949
 C    2.700076471169   -4.844287093614    0.000000000000
 H    2.654632870385   -5.942437223263    0.000000000000
 H    2.156693571445   -4.508132217177   -0.898515094440
 H    2.156693571445   -4.508132217177    0.898515094440
