26

 C   -1.631705072315    4.097651818419    0.000000000000
 H   -1.586265072315    5.195811818419    0.000000000000
 H   -1.088325072315    3.761501818419    0.898510000000
 H   -1.088325072315    3.761501818419   -0.898510000000
 C   -3.082175072315    3.652461818419    0.000000000000
 H   -3.618305072315    4.012151818419   -0.892170000000
 H   -3.618305072315    4.012151818419    0.892170000000
 O   -3.123555072315    2.182911818419    0.000000000000
 C   -4.510975072315    1.718921818419    0.000000000000
 H   -5.030815072315    2.085481818419   -0.896930000000
 H   -5.030815072315    2.085481818419    0.896930000000
 H   -4.484865072315    0.621631818419    0.000000000000
NA   -1.805585072315    1.261841818419    1.748080000000
NA   -1.805585072315    1.261841818419   -1.748080000000
 O    4.505893748426   -3.148967075121    0.000000000000
 C    5.893315276785   -2.684979785267    0.000000000000
 H    6.413154901857   -3.051535898773    0.896927843394
 H    6.413154901857   -3.051535898773   -0.896927843394
 H    5.867202886621   -1.587690441894    0.000000000000
 C    4.464515741212   -4.618514650880    0.000000000000
 H    5.000646509440   -4.978209748007    0.892164123949
 H    5.000646509440   -4.978209748007   -0.892164123949
 C    3.014050608047   -5.063709507063    0.000000000000
 H    2.968607007263   -6.161859636712    0.000000000000
 H    2.470667708323   -4.727554630627   -0.898515094440
 H    2.470667708323   -4.727554630627    0.898515094440
