26

 C   -1.661343306914    4.118364648561    0.000000000000
 H   -1.615903306914    5.216524648561    0.000000000000
 H   -1.117963306914    3.782214648561    0.898510000000
 H   -1.117963306914    3.782214648561   -0.898510000000
 C   -3.111813306914    3.673174648561    0.000000000000
 H   -3.647943306914    4.032864648561   -0.892170000000
 H   -3.647943306914    4.032864648561    0.892170000000
 O   -3.153193306914    2.203624648561    0.000000000000
 C   -4.540613306914    1.739634648561    0.000000000000
 H   -5.060453306914    2.106194648561   -0.896930000000
 H   -5.060453306914    2.106194648561    0.896930000000
 H   -4.514503306914    0.642344648561    0.000000000000
NA   -1.835223306914    1.282554648561    1.748080000000
NA   -1.835223306914    1.282554648561   -1.748080000000
 O    4.558222771239   -3.185537477363    0.000000000000
 C    5.945644299598   -2.721550187508    0.000000000000
 H    6.465483924670   -3.088106301014    0.896927843394
 H    6.465483924670   -3.088106301014   -0.896927843394
 H    5.919531909434   -1.624260844135    0.000000000000
 C    4.516844764025   -4.655085053122    0.000000000000
 H    5.052975532253   -5.014780150249    0.892164123949
 H    5.052975532253   -5.014780150249   -0.892164123949
 C    3.066379630860   -5.100279909305    0.000000000000
 H    3.020936030076   -6.198430038954    0.000000000000
 H    2.522996731136   -4.764125032868   -0.898515094440
 H    2.522996731136   -4.764125032868    0.898515094440
