26

 C   -1.690981541513    4.139077478704    0.000000000000
 H   -1.645541541513    5.237237478704    0.000000000000
 H   -1.147601541513    3.802927478704    0.898510000000
 H   -1.147601541513    3.802927478704   -0.898510000000
 C   -3.141451541513    3.693887478704    0.000000000000
 H   -3.677581541513    4.053577478704   -0.892170000000
 H   -3.677581541513    4.053577478704    0.892170000000
 O   -3.182831541513    2.224337478704    0.000000000000
 C   -4.570251541513    1.760347478704    0.000000000000
 H   -5.090091541513    2.126907478704   -0.896930000000
 H   -5.090091541513    2.126907478704    0.896930000000
 H   -4.544141541513    0.663057478704    0.000000000000
NA   -1.864861541513    1.303267478704    1.748080000000
NA   -1.864861541513    1.303267478704   -1.748080000000
 O    4.610551794052   -3.222107879605    0.000000000000
 C    5.997973322411   -2.758120589750    0.000000000000
 H    6.517812947483   -3.124676703256    0.896927843394
 H    6.517812947483   -3.124676703256   -0.896927843394
 H    5.971860932247   -1.660831246377    0.000000000000
 C    4.569173786838   -4.691655455363    0.000000000000
 H    5.105304555066   -5.051350552490    0.892164123949
 H    5.105304555066   -5.051350552490   -0.892164123949
 C    3.118708653673   -5.136850311546    0.000000000000
 H    3.073265052889   -6.235000441195    0.000000000000
 H    2.575325753949   -4.800695435110   -0.898515094440
 H    2.575325753949   -4.800695435110    0.898515094440
