26

 C   -1.779896245311    4.201215969130    0.000000000000
 H   -1.734456245311    5.299375969130    0.000000000000
 H   -1.236516245311    3.865065969130    0.898510000000
 H   -1.236516245311    3.865065969130   -0.898510000000
 C   -3.230366245311    3.756025969130    0.000000000000
 H   -3.766496245311    4.115715969130   -0.892170000000
 H   -3.766496245311    4.115715969130    0.892170000000
 O   -3.271746245311    2.286475969130    0.000000000000
 C   -4.659166245311    1.822485969130    0.000000000000
 H   -5.179006245311    2.189045969130   -0.896930000000
 H   -5.179006245311    2.189045969130    0.896930000000
 H   -4.633056245311    0.725195969130    0.000000000000
NA   -1.953776245311    1.365405969130    1.748080000000
NA   -1.953776245311    1.365405969130   -1.748080000000
 O    4.767538862491   -3.331819086329    0.000000000000
 C    6.154960390850   -2.867831796475    0.000000000000
 H    6.674800015922   -3.234387909981    0.896927843394
 H    6.674800015922   -3.234387909981   -0.896927843394
 H    6.128848000686   -1.770542453102    0.000000000000
 C    4.726160855277   -4.801366662088    0.000000000000
 H    5.262291623505   -5.161061759215    0.892164123949
 H    5.262291623505   -5.161061759215   -0.892164123949
 C    3.275695722111   -5.246561518271    0.000000000000
 H    3.230252121328   -6.344711647920    0.000000000000
 H    2.732312822388   -4.910406641835   -0.898515094440
 H    2.732312822388   -4.910406641835    0.898515094440
