26

 C   -1.868810949109    4.263354459556    0.000000000000
 H   -1.823370949109    5.361514459556    0.000000000000
 H   -1.325430949109    3.927204459556    0.898510000000
 H   -1.325430949109    3.927204459556   -0.898510000000
 C   -3.319280949109    3.818164459556    0.000000000000
 H   -3.855410949109    4.177854459556   -0.892170000000
 H   -3.855410949109    4.177854459556    0.892170000000
 O   -3.360660949109    2.348614459556    0.000000000000
 C   -4.748080949109    1.884624459556    0.000000000000
 H   -5.267920949109    2.251184459556   -0.896930000000
 H   -5.267920949109    2.251184459556    0.896930000000
 H   -4.721970949109    0.787334459556    0.000000000000
NA   -2.042690949109    1.427544459556    1.748080000000
NA   -2.042690949109    1.427544459556   -1.748080000000
 O    4.924525930930   -3.441530293054    0.000000000000
 C    6.311947459289   -2.977543003199    0.000000000000
 H    6.831787084361   -3.344099116705    0.896927843394
 H    6.831787084361   -3.344099116705   -0.896927843394
 H    6.285835069125   -1.880253659826    0.000000000000
 C    4.883147923716   -4.911077868813    0.000000000000
 H    5.419278691944   -5.270772965940    0.892164123949
 H    5.419278691944   -5.270772965940   -0.892164123949
 C    3.432682790550   -5.356272724996    0.000000000000
 H    3.387239189767   -6.454422854645    0.000000000000
 H    2.889299890827   -5.020117848559   -0.898515094440
 H    2.889299890827   -5.020117848559    0.898515094440
