26

 C   -1.957725652906    4.325492949982    0.000000000000
 H   -1.912285652906    5.423652949982    0.000000000000
 H   -1.414345652906    3.989342949982    0.898510000000
 H   -1.414345652906    3.989342949982   -0.898510000000
 C   -3.408195652906    3.880302949982    0.000000000000
 H   -3.944325652906    4.239992949982   -0.892170000000
 H   -3.944325652906    4.239992949982    0.892170000000
 O   -3.449575652906    2.410752949982    0.000000000000
 C   -4.836995652906    1.946762949982    0.000000000000
 H   -5.356835652906    2.313322949982   -0.896930000000
 H   -5.356835652906    2.313322949982    0.896930000000
 H   -4.810885652906    0.849472949982    0.000000000000
NA   -2.131605652906    1.489682949982    1.748080000000
NA   -2.131605652906    1.489682949982   -1.748080000000
 O    5.081512999369   -3.551241499779    0.000000000000
 C    6.468934527728   -3.087254209924    0.000000000000
 H    6.988774152800   -3.453810323430    0.896927843394
 H    6.988774152800   -3.453810323430   -0.896927843394
 H    6.442822137564   -1.989964866551    0.000000000000
 C    5.040134992155   -5.020789075538    0.000000000000
 H    5.576265760383   -5.380484172664    0.892164123949
 H    5.576265760383   -5.380484172664   -0.892164123949
 C    3.589669858989   -5.465983931721    0.000000000000
 H    3.544226258206   -6.564134061370    0.000000000000
 H    3.046286959266   -5.129829055284   -0.898515094440
 H    3.046286959266   -5.129829055284    0.898515094440
