26

 C   -1.987363887506    4.346205780124    0.000000000000
 H   -1.941923887506    5.444365780124    0.000000000000
 H   -1.443983887506    4.010055780124    0.898510000000
 H   -1.443983887506    4.010055780124   -0.898510000000
 C   -3.437833887506    3.901015780124    0.000000000000
 H   -3.973963887506    4.260705780124   -0.892170000000
 H   -3.973963887506    4.260705780124    0.892170000000
 O   -3.479213887506    2.431465780124    0.000000000000
 C   -4.866633887506    1.967475780124    0.000000000000
 H   -5.386473887506    2.334035780124   -0.896930000000
 H   -5.386473887506    2.334035780124    0.896930000000
 H   -4.840523887506    0.870185780124    0.000000000000
NA   -2.161243887506    1.510395780124    1.748080000000
NA   -2.161243887506    1.510395780124   -1.748080000000
 O    5.133842022182   -3.587811902020    0.000000000000
 C    6.521263550541   -3.123824612166    0.000000000000
 H    7.041103175613   -3.490380725672    0.896927843394
 H    7.041103175613   -3.490380725672   -0.896927843394
 H    6.495151160377   -2.026535268793    0.000000000000
 C    5.092464014968   -5.057359477779    0.000000000000
 H    5.628594783196   -5.417054574906    0.892164123949
 H    5.628594783196   -5.417054574906   -0.892164123949
 C    3.641998881802   -5.502554333962    0.000000000000
 H    3.596555281019   -6.600704463611    0.000000000000
 H    3.098615982079   -5.166399457526   -0.898515094440
 H    3.098615982079   -5.166399457526    0.898515094440
