26

 C   -2.017002122105    4.366918610266    0.000000000000
 H   -1.971562122105    5.465078610266    0.000000000000
 H   -1.473622122105    4.030768610266    0.898510000000
 H   -1.473622122105    4.030768610266   -0.898510000000
 C   -3.467472122105    3.921728610266    0.000000000000
 H   -4.003602122105    4.281418610266   -0.892170000000
 H   -4.003602122105    4.281418610266    0.892170000000
 O   -3.508852122105    2.452178610266    0.000000000000
 C   -4.896272122105    1.988188610266    0.000000000000
 H   -5.416112122105    2.354748610266   -0.896930000000
 H   -5.416112122105    2.354748610266    0.896930000000
 H   -4.870162122105    0.890898610266    0.000000000000
NA   -2.190882122105    1.531108610266    1.748080000000
NA   -2.190882122105    1.531108610266   -1.748080000000
 O    5.186171044995   -3.624382304262    0.000000000000
 C    6.573592573354   -3.160395014407    0.000000000000
 H    7.093432198426   -3.526951127913    0.896927843394
 H    7.093432198426   -3.526951127913   -0.896927843394
 H    6.547480183190   -2.063105671034    0.000000000000
 C    5.144793037780   -5.093929880021    0.000000000000
 H    5.680923806009   -5.453624977148    0.892164123949
 H    5.680923806009   -5.453624977148   -0.892164123949
 C    3.694327904615   -5.539124736204    0.000000000000
 H    3.648884303832   -6.637274865853    0.000000000000
 H    3.150945004891   -5.202969859767   -0.898515094440
 H    3.150945004891   -5.202969859767    0.898515094440
