26

 C   -2.046640356704    4.387631440408    0.000000000000
 H   -2.001200356704    5.485791440408    0.000000000000
 H   -1.503260356704    4.051481440408    0.898510000000
 H   -1.503260356704    4.051481440408   -0.898510000000
 C   -3.497110356704    3.942441440408    0.000000000000
 H   -4.033240356704    4.302131440408   -0.892170000000
 H   -4.033240356704    4.302131440408    0.892170000000
 O   -3.538490356704    2.472891440408    0.000000000000
 C   -4.925910356704    2.008901440408    0.000000000000
 H   -5.445750356704    2.375461440408   -0.896930000000
 H   -5.445750356704    2.375461440408    0.896930000000
 H   -4.899800356704    0.911611440408    0.000000000000
NA   -2.220520356704    1.551821440408    1.748080000000
NA   -2.220520356704    1.551821440408   -1.748080000000
 O    5.238500067808   -3.660952706504    0.000000000000
 C    6.625921596167   -3.196965416649    0.000000000000
 H    7.145761221239   -3.563521530155    0.896927843394
 H    7.145761221239   -3.563521530155   -0.896927843394
 H    6.599809206003   -2.099676073276    0.000000000000
 C    5.197122060593   -5.130500282262    0.000000000000
 H    5.733252828822   -5.490195379389    0.892164123949
 H    5.733252828822   -5.490195379389   -0.892164123949
 C    3.746656927428   -5.575695138445    0.000000000000
 H    3.701213326645   -6.673845268094    0.000000000000
 H    3.203274027704   -5.239540262009   -0.898515094440
 H    3.203274027704   -5.239540262009    0.898515094440
