26

 C   -2.135555060502    4.449769930834    0.000000000000
 H   -2.090115060502    5.547929930834    0.000000000000
 H   -1.592175060502    4.113619930834    0.898510000000
 H   -1.592175060502    4.113619930834   -0.898510000000
 C   -3.586025060502    4.004579930834    0.000000000000
 H   -4.122155060502    4.364269930834   -0.892170000000
 H   -4.122155060502    4.364269930834    0.892170000000
 O   -3.627405060502    2.535029930834    0.000000000000
 C   -5.014825060502    2.071039930834    0.000000000000
 H   -5.534665060502    2.437599930834   -0.896930000000
 H   -5.534665060502    2.437599930834    0.896930000000
 H   -4.988715060502    0.973749930834    0.000000000000
NA   -2.309435060502    1.613959930834    1.748080000000
NA   -2.309435060502    1.613959930834   -1.748080000000
 O    5.395487136247   -3.770663913228    0.000000000000
 C    6.782908664605   -3.306676623374    0.000000000000
 H    7.302748289678   -3.673232736880    0.896927843394
 H    7.302748289678   -3.673232736880   -0.896927843394
 H    6.756796274442   -2.209387280001    0.000000000000
 C    5.354109129032   -5.240211488987    0.000000000000
 H    5.890239897261   -5.599906586114    0.892164123949
 H    5.890239897261   -5.599906586114   -0.892164123949
 C    3.903643995867   -5.685406345170    0.000000000000
 H    3.858200395084   -6.783556474819    0.000000000000
 H    3.360261096143   -5.349251468734   -0.898515094440
 H    3.360261096143   -5.349251468734    0.898515094440
