26

 C   -2.194831529700    4.491195591119    0.000000000000
 H   -2.149391529700    5.589355591119    0.000000000000
 H   -1.651451529700    4.155045591119    0.898510000000
 H   -1.651451529700    4.155045591119   -0.898510000000
 C   -3.645301529700    4.046005591119    0.000000000000
 H   -4.181431529700    4.405695591119   -0.892170000000
 H   -4.181431529700    4.405695591119    0.892170000000
 O   -3.686681529700    2.576455591119    0.000000000000
 C   -5.074101529700    2.112465591119    0.000000000000
 H   -5.593941529700    2.479025591119   -0.896930000000
 H   -5.593941529700    2.479025591119    0.896930000000
 H   -5.047991529700    1.015175591119    0.000000000000
NA   -2.368711529700    1.655385591119    1.748080000000
NA   -2.368711529700    1.655385591119   -1.748080000000
 O    5.500145181873   -3.843804717711    0.000000000000
 C    6.887566710231   -3.379817427857    0.000000000000
 H    7.407406335304   -3.746373541363    0.896927843394
 H    7.407406335304   -3.746373541363   -0.896927843394
 H    6.861454320068   -2.282528084484    0.000000000000
 C    5.458767174658   -5.313352293470    0.000000000000
 H    5.994897942887   -5.673047390597    0.892164123949
 H    5.994897942887   -5.673047390597   -0.892164123949
 C    4.008302041493   -5.758547149653    0.000000000000
 H    3.962858440710   -6.856697279302    0.000000000000
 H    3.464919141769   -5.422392273217   -0.898515094440
 H    3.464919141769   -5.422392273217    0.898515094440
