26

 C   -2.254107998899    4.532621251403    0.000000000000
 H   -2.208667998899    5.630781251403    0.000000000000
 H   -1.710727998899    4.196471251403    0.898510000000
 H   -1.710727998899    4.196471251403   -0.898510000000
 C   -3.704577998899    4.087431251403    0.000000000000
 H   -4.240707998899    4.447121251403   -0.892170000000
 H   -4.240707998899    4.447121251403    0.892170000000
 O   -3.745957998899    2.617881251403    0.000000000000
 C   -5.133377998899    2.153891251403    0.000000000000
 H   -5.653217998899    2.520451251403   -0.896930000000
 H   -5.653217998899    2.520451251403    0.896930000000
 H   -5.107267998899    1.056601251403    0.000000000000
NA   -2.427987998899    1.696811251403    1.748080000000
NA   -2.427987998899    1.696811251403   -1.748080000000
 O    5.604803227499   -3.916945522195    0.000000000000
 C    6.992224755857   -3.452958232340    0.000000000000
 H    7.512064380930   -3.819514345846    0.896927843394
 H    7.512064380930   -3.819514345846   -0.896927843394
 H    6.966112365694   -2.355668888967    0.000000000000
 C    5.563425220284   -5.386493097954    0.000000000000
 H    6.099555988512   -5.746188195080    0.892164123949
 H    6.099555988512   -5.746188195080   -0.892164123949
 C    4.112960087119   -5.831687954137    0.000000000000
 H    4.067516486336   -6.929838083785    0.000000000000
 H    3.569577187395   -5.495533077700   -0.898515094440
 H    3.569577187395   -5.495533077700    0.898515094440
