13

 N   -1.407288762896    1.141464589681    0.000323602990
 C   -0.233549179813    1.868836781191    0.000011123820
 H   -0.351266039876    2.954155240235   -0.000104723739
 C   -1.453064735976   -0.251747202186   -0.000061451579
 O   -2.504652904532   -0.885850516027    0.000281915525
 N   -0.192624194835   -0.835217258318    0.000355451743
 H   -0.182808397712   -1.853502370184    0.000328147648
 C    1.068630094398   -0.199161771355    0.000372546579
 O    2.102323022466   -0.868425605771   -0.000373119085
 C    0.987151302638    1.261385290035   -0.000127350868
 H    1.910551440940    1.838445548901   -0.000468027645
 H   -2.311025938844    1.601118711041    0.000121951390
LI    3.613279828822   -1.846693637215   -0.001463064251
