13

 N   -1.812963816553    1.404118647347    0.000616241113
 C   -0.639224233470    2.131490838857    0.000303761943
 H   -0.756941093533    3.216809297901    0.000187914384
 C   -1.858739789633    0.010906855480    0.000231186544
 O   -2.910327958189   -0.623196458361    0.000574553648
 N   -0.598299248492   -0.572563200652    0.000648089866
 H   -0.588483451369   -1.590848312518    0.000620785771
 C    0.662955040741    0.063492286311    0.000665184702
 O    1.696647968809   -0.605771548105   -0.000080480962
 C    0.581476248981    1.524039347701    0.000165287255
 H    1.504876387283    2.101099606567   -0.000175389522
 H   -2.716700992501    1.863772768707    0.000414589513
LI   10.090852448565   -6.040593945017   -0.006135731886
