13

 N   -1.422130533152    1.151073884474    0.000334309263
 C   -0.248390950069    1.878446075984    0.000021830093
 H   -0.366107810132    2.963764535028   -0.000094017466
 C   -1.467906506232   -0.242137907393   -0.000050745306
 O   -2.519494674788   -0.876241221234    0.000292621798
 N   -0.207465965091   -0.825607963525    0.000366158016
 H   -0.197650167968   -1.843893075391    0.000338853921
 C    1.053788324142   -0.189552476562    0.000383252852
 O    2.087481252210   -0.858816310978   -0.000362412812
 C    0.972309532382    1.270994584828   -0.000116644595
 H    1.895709670684    1.848054843694   -0.000457321372
 H   -2.325867709100    1.610728005834    0.000132657663
LI    3.850264192959   -2.000129014330   -0.001634015506
