13

 N   -1.441919560160    1.163886277531    0.000348584293
 C   -0.268179977077    1.891258469041    0.000036105123
 H   -0.385896837140    2.976576928085   -0.000079742436
 C   -1.487695533240   -0.229325514336   -0.000036470276
 O   -2.539283701796   -0.863428828177    0.000306896828
 N   -0.227254992099   -0.812795570468    0.000380433046
 H   -0.217439194976   -1.831080682334    0.000353128951
 C    1.033999297134   -0.176740083505    0.000397527882
 O    2.067692225202   -0.846003917921   -0.000348137782
 C    0.952520505374    1.283806977885   -0.000102369565
 H    1.875920643676    1.860867236751   -0.000443046342
 H   -2.345656736108    1.623540398891    0.000146932693
LI    4.166243345141   -2.204709517149   -0.001861950513
