13

 N   -1.446866816912    1.167089375795    0.000352153051
 C   -0.273127233829    1.894461567305    0.000039673881
 H   -0.390844093892    2.979780026349   -0.000076173678
 C   -1.492642789992   -0.226122416072   -0.000032901518
 O   -2.544230958548   -0.860225729913    0.000310465586
 N   -0.232202248851   -0.809592472204    0.000384001804
 H   -0.222386451728   -1.827877584070    0.000356697709
 C    1.029052040382   -0.173536985241    0.000401096640
 O    2.062744968450   -0.842800819657   -0.000344569024
 C    0.947573248622    1.287010076149   -0.000098800807
 H    1.870973386924    1.864070335015   -0.000439477584
 H   -2.350603992860    1.626743497155    0.000150501451
LI    4.245238133187   -2.255854642854   -0.001918934265
