13

 N   -1.456761330416    1.173495572323    0.000359290566
 C   -0.283021747333    1.900867763833    0.000046811396
 H   -0.400738607396    2.986186222877   -0.000069036163
 C   -1.502537303496   -0.219716219544   -0.000025764003
 O   -2.554125472052   -0.853819533385    0.000317603101
 N   -0.242096762355   -0.803186275676    0.000391139319
 H   -0.232280965232   -1.821471387542    0.000363835224
 C    1.019157526878   -0.167130788713    0.000408234155
 O    2.052850454946   -0.836394623129   -0.000337431509
 C    0.937678735118    1.293416272677   -0.000091663292
 H    1.861078873420    1.870476531543   -0.000432340069
 H   -2.360498506364    1.633149693683    0.000157638966
LI    4.403227709278   -2.358144894264   -0.002032901768
