13

 N   -1.461708587167    1.176698670588    0.000362859323
 C   -0.287969004084    1.904070862098    0.000050380153
 H   -0.405685864147    2.989389321142   -0.000065467406
 C   -1.507484560247   -0.216513121279   -0.000022195246
 O   -2.559072728803   -0.850616435120    0.000321171858
 N   -0.247044019106   -0.799983177411    0.000394708076
 H   -0.237228221983   -1.818268289277    0.000367403981
 C    1.014210270127   -0.163927690448    0.000411802912
 O    2.047903198195   -0.833191524864   -0.000333862752
 C    0.932731478367    1.296619370942   -0.000088094535
 H    1.856131616669    1.873679629808   -0.000428771312
 H   -2.365445763115    1.636352791948    0.000161207723
LI    4.482222497324   -2.409290019969   -0.002089885519
