13

 N   -1.471603100671    1.183104867116    0.000369996839
 C   -0.297863517588    1.910477058626    0.000057517669
 H   -0.415580377651    2.995795517670   -0.000058329890
 C   -1.517379073751   -0.210106924751   -0.000015057730
 O   -2.568967242307   -0.844210238592    0.000328309374
 N   -0.256938532610   -0.793576980883    0.000401845592
 H   -0.247122735487   -1.811862092749    0.000374541497
 C    1.004315756623   -0.157521493920    0.000418940428
 O    2.038008684691   -0.826785328336   -0.000326725236
 C    0.922836964863    1.303025567470   -0.000080957019
 H    1.846237103165    1.880085826336   -0.000421633796
 H   -2.375340276619    1.642758988476    0.000168345239
LI    4.640212073415   -2.511580271379   -0.002203853023
