13

 N   -1.486444870927    1.192714161909    0.000380703111
 C   -0.312705287844    1.920086353419    0.000068223941
 H   -0.430422147907    3.005404812463   -0.000047623618
 C   -1.532220844007   -0.200497629958   -0.000004351458
 O   -2.583809012563   -0.834600943799    0.000339015646
 N   -0.271780302866   -0.783967686090    0.000412551864
 H   -0.261964505743   -1.802252797956    0.000385247769
 C    0.989473986367   -0.147912199127    0.000429646700
 O    2.023166914435   -0.817176033543   -0.000316018964
 C    0.907995194607    1.312634862263   -0.000070250747
 H    1.831395332909    1.889695121129   -0.000410927524
 H   -2.390182046875    1.652368283269    0.000179051511
LI    4.877196437552   -2.665015648493   -0.002374804278
