13

 N   -1.491392127679    1.195917260173    0.000384271869
 C   -0.317652544596    1.923289451683    0.000071792699
 H   -0.435369404659    3.008607910727   -0.000044054860
 C   -1.537168100759   -0.197294531694   -0.000000782700
 O   -2.588756269315   -0.831397845535    0.000342584404
 N   -0.276727559618   -0.780764587826    0.000416120622
 H   -0.266911762495   -1.799049699692    0.000388816527
 C    0.984526729615   -0.144709100863    0.000433215458
 O    2.018219657683   -0.813972935279   -0.000312450206
 C    0.903047937855    1.315837960527   -0.000066681989
 H    1.826448076157    1.892898219393   -0.000407358766
 H   -2.395129303627    1.655571381533    0.000182620269
LI    4.956191225598   -2.716160774198   -0.002431788029
