13

 N   -1.506233897935    1.205526554966    0.000394978142
 C   -0.332494314852    1.932898746476    0.000082498972
 H   -0.450211174915    3.018217205520   -0.000033348587
 C   -1.552009871015   -0.187685236901    0.000009923573
 O   -2.603598039571   -0.821788550742    0.000353290677
 N   -0.291569329874   -0.771155293033    0.000426826895
 H   -0.281753532751   -1.789440404899    0.000399522800
 C    0.969684959359   -0.135099806070    0.000443921731
 O    2.003377887427   -0.804363640486   -0.000301743933
 C    0.888206167599    1.325447255320   -0.000055975716
 H    1.811606305901    1.902507514186   -0.000396652493
 H   -2.409971073883    1.665180676326    0.000193326542
LI    5.193175589735   -2.869596151313   -0.002602739284
