13

 N   -1.511181154687    1.208729653230    0.000398546899
 C   -0.337441571604    1.936101844740    0.000086067729
 H   -0.455158431667    3.021420303784   -0.000029779830
 C   -1.556957127767   -0.184482138637    0.000013492330
 O   -2.608545296323   -0.818585452478    0.000356859434
 N   -0.296516586626   -0.767952194769    0.000430395652
 H   -0.286700789503   -1.786237306635    0.000403091557
 C    0.964737702607   -0.131896707806    0.000447490488
 O    1.998430630675   -0.801160542222   -0.000298175176
 C    0.883258910847    1.328650353584   -0.000052406959
 H    1.806659049149    1.905710612450   -0.000393083736
 H   -2.414918330635    1.668383774590    0.000196895299
LI    5.272170377780   -2.920741277018   -0.002659723036
