13

 N   -1.521075668190    1.215135849758    0.000405684415
 C   -0.347336085107    1.942508041268    0.000093205245
 H   -0.465052945170    3.027826500312   -0.000022642314
 C   -1.566851641270   -0.178075942109    0.000020629846
 O   -2.618439809826   -0.812179255950    0.000363996950
 N   -0.306411100129   -0.761545998241    0.000437533168
 H   -0.296595303006   -1.779831110107    0.000410229073
 C    0.954843189104   -0.125490511278    0.000454628004
 O    1.988536117172   -0.794754345694   -0.000291037660
 C    0.873364397344    1.335056550112   -0.000045269443
 H    1.796764535646    1.912116808978   -0.000385946220
 H   -2.424812844138    1.674789971118    0.000204032815
LI    5.430159953872   -3.023031528428   -0.002773690539
