13

 N   -1.526022924942    1.218338948023    0.000409253172
 C   -0.352283341859    1.945711139533    0.000096774002
 H   -0.470000201922    3.031029598577   -0.000019073557
 C   -1.571798898022   -0.174872843844    0.000024198603
 O   -2.623387066578   -0.808976157685    0.000367565707
 N   -0.311358356881   -0.758342899976    0.000441101925
 H   -0.301542559758   -1.776628011842    0.000413797830
 C    0.949895932352   -0.122287413013    0.000458196761
 O    1.983588860420   -0.791551247429   -0.000287468903
 C    0.868417140592    1.338259648377   -0.000041700686
 H    1.791817278894    1.915319907243   -0.000382377463
 H   -2.429760100890    1.677993069383    0.000207601572
LI    5.509154741917   -3.074176654133   -0.002830674291
