13

 N   -1.530970181694    1.221542046287    0.000412821930
 C   -0.357230598611    1.948914237797    0.000100342760
 H   -0.474947458674    3.034232696841   -0.000015504799
 C   -1.576746154774   -0.171669745580    0.000027767361
 O   -2.628334323330   -0.805773059421    0.000371134465
 N   -0.316305613633   -0.755139801712    0.000444670683
 H   -0.306489816510   -1.773424913578    0.000417366588
 C    0.944948675600   -0.119084314749    0.000461765519
 O    1.978641603668   -0.788348149165   -0.000283900145
 C    0.863469883840    1.341462746641   -0.000038131928
 H    1.786870022142    1.918523005507   -0.000378808705
 H   -2.434707357642    1.681196167647    0.000211170330
LI    5.588149529963   -3.125321779837   -0.002887658042
