13

 N   -1.540864695198    1.227948242815    0.000419959445
 C   -0.367125112115    1.955320434325    0.000107480275
 H   -0.484841972178    3.040638893369   -0.000008367284
 C   -1.586640668278   -0.165263549052    0.000034904876
 O   -2.638228836834   -0.799366862893    0.000378271980
 N   -0.326200127137   -0.748733605184    0.000451808198
 H   -0.316384330014   -1.767018717050    0.000424504103
 C    0.935054162096   -0.112678118221    0.000468903034
 O    1.968747090164   -0.781941952637   -0.000276762630
 C    0.853575370336    1.347868943169   -0.000030994413
 H    1.776975508638    1.924929202035   -0.000371671190
 H   -2.444601871146    1.687602364175    0.000218307845
LI    5.746139106054   -3.227612031247   -0.003001625546
