13

 N   -1.550759208702    1.234354439344    0.000427096960
 C   -0.377019625619    1.961726630854    0.000114617790
 H   -0.494736485682    3.047045089898   -0.000001229769
 C   -1.596535181782   -0.158857352523    0.000042042391
 O   -2.648123350338   -0.792960666364    0.000385409495
 N   -0.336094640641   -0.742327408655    0.000458945713
 H   -0.326278843518   -1.760612520521    0.000431641618
 C    0.925159648592   -0.106271921692    0.000476040549
 O    1.958852576660   -0.775535756108   -0.000269625115
 C    0.843680856832    1.354275139698   -0.000023856898
 H    1.767080995134    1.931335398564   -0.000364533675
 H   -2.454496384650    1.694008560704    0.000225445360
LI    5.904128682145   -3.329902282657   -0.003115593049
