13

 N   -1.560653722206    1.240760635872    0.000434234475
 C   -0.386914139123    1.968132827382    0.000121755305
 H   -0.504630999186    3.053451286426    0.000005907746
 C   -1.606429695286   -0.152451155995    0.000049179906
 O   -2.658017863842   -0.786554469836    0.000392547010
 N   -0.345989154145   -0.735921212127    0.000466083228
 H   -0.336173357022   -1.754206323993    0.000438779133
 C    0.915265135088   -0.099865725164    0.000483178064
 O    1.948958063156   -0.769129559580   -0.000262487600
 C    0.833786343328    1.360681336226   -0.000016719383
 H    1.757186481630    1.937741595092   -0.000357396160
 H   -2.464390898154    1.700414757232    0.000232582875
LI    6.062118258237   -3.432192534067   -0.003229560552
