13

 N   -1.595284519469    1.263182323722    0.000459215778
 C   -0.421544936386    1.990554515232    0.000146736608
 H   -0.539261796449    3.075872974276    0.000030889049
 C   -1.641060492549   -0.130029468145    0.000074161209
 O   -2.692648661105   -0.764132781986    0.000417528313
 N   -0.380619951408   -0.713499524277    0.000491064531
 H   -0.370804154285   -1.731784636143    0.000463760436
 C    0.880634337825   -0.077444037314    0.000508159367
 O    1.914327265893   -0.746707871730   -0.000237506297
 C    0.799155546065    1.383103024076    0.000008261920
 H    1.722555684367    1.960163282942   -0.000332414857
 H   -2.499021695417    1.722836445082    0.000257564178
LI    6.615081774556   -3.790208414001   -0.003628446814
