13

 N   -1.605179032973    1.269588520250    0.000466353294
 C   -0.431439449890    1.996960711760    0.000153874124
 H   -0.549156309953    3.082279170804    0.000038026565
 C   -1.650955006053   -0.123623271617    0.000081298725
 O   -2.702543174609   -0.757726585458    0.000424665829
 N   -0.390514464912   -0.707093327749    0.000498202047
 H   -0.380698667789   -1.725378439615    0.000470897952
 C    0.870739824321   -0.071037840786    0.000515296883
 O    1.904432752389   -0.740301675202   -0.000230368781
 C    0.789261032561    1.389509220604    0.000015399436
 H    1.712661170863    1.966569479470   -0.000325277341
 H   -2.508916208921    1.729242641610    0.000264701694
LI    6.773071350648   -3.892498665411   -0.003742414317
