13

 N   -1.610126289725    1.272791618514    0.000469922051
 C   -0.436386706642    2.000163810024    0.000157442881
 H   -0.554103566705    3.085482269068    0.000041595322
 C   -1.655902262805   -0.120420173353    0.000084867482
 O   -2.707490431361   -0.754523487194    0.000428234586
 N   -0.395461721664   -0.703890229485    0.000501770804
 H   -0.385645924541   -1.722175341351    0.000474466709
 C    0.865792567569   -0.067834742522    0.000518865640
 O    1.899485495637   -0.737098576938   -0.000226800024
 C    0.784313775809    1.392712318868    0.000018968193
 H    1.707713914111    1.969772577734   -0.000321708584
 H   -2.513863465673    1.732445739874    0.000268270451
LI    6.852066138693   -3.943643791116   -0.003799398069
