13

 N   -1.615073546477    1.275994716778    0.000473490809
 C   -0.441333963394    2.003366908288    0.000161011639
 H   -0.559050823457    3.088685367332    0.000045164080
 C   -1.660849519557   -0.117217075089    0.000088436240
 O   -2.712437688113   -0.751320388930    0.000431803344
 N   -0.400408978416   -0.700687131221    0.000505339562
 H   -0.390593181293   -1.718972243087    0.000478035467
 C    0.860845310817   -0.064631644258    0.000522434398
 O    1.894538238885   -0.733895478674   -0.000223231266
 C    0.779366519057    1.395915417132    0.000022536951
 H    1.702766657359    1.972975675998   -0.000318139826
 H   -2.518810722425    1.735648838138    0.000271839209
LI    6.931060926739   -3.994788916821   -0.003856381820
