13

 N   -1.634862573485    1.288807109835    0.000487765839
 C   -0.461122990402    2.016179301345    0.000175286669
 H   -0.578839850465    3.101497760389    0.000059439110
 C   -1.680638546565   -0.104404682032    0.000102711270
 O   -2.732226715121   -0.738507995873    0.000446078374
 N   -0.420198005424   -0.687874738164    0.000519614592
 H   -0.410382208301   -1.706159850030    0.000492310497
 C    0.841056283809   -0.051819251201    0.000536709428
 O    1.874749211877   -0.721083085617   -0.000208956236
 C    0.759577492049    1.408727810189    0.000036811981
 H    1.682977630351    1.985788069055   -0.000303864796
 H   -2.538599749433    1.748461231195    0.000286114239
LI    7.247040078921   -4.199369419640   -0.004084316827
