13

 N   -1.644757086988    1.295213306364    0.000494903354
 C   -0.471017503905    2.022585497874    0.000182424184
 H   -0.588734363968    3.107903956918    0.000066576625
 C   -1.690533060068   -0.097998485503    0.000109848785
 O   -2.742121228624   -0.732101799344    0.000453215889
 N   -0.430092518927   -0.681468541635    0.000526752107
 H   -0.420276721804   -1.699753653501    0.000499448012
 C    0.831161770306   -0.045413054672    0.000543846943
 O    1.864854698374   -0.714676889088   -0.000201818721
 C    0.749682978546    1.415134006718    0.000043949496
 H    1.673083116848    1.992194265584   -0.000296727281
 H   -2.548494262936    1.754867427724    0.000293251754
LI    7.405029655013   -4.301659671050   -0.004198284330
