13

 N   -1.664546113996    1.308025699421    0.000509178385
 C   -0.490806530913    2.035397890931    0.000196699215
 H   -0.608523390976    3.120716349975    0.000080851656
 C   -1.710322087076   -0.085186092446    0.000124123816
 O   -2.761910255632   -0.719289406287    0.000467490920
 N   -0.449881545935   -0.668656148578    0.000541027138
 H   -0.440065748812   -1.686941260444    0.000513723043
 C    0.811372743298   -0.032600661615    0.000558121974
 O    1.845065671366   -0.701864496031   -0.000187543690
 C    0.729893951538    1.427946399775    0.000058224527
 H    1.653294089840    2.005006658641   -0.000282452250
 H   -2.568283289944    1.767679820781    0.000307526785
LI    7.721008807195   -4.506240173870   -0.004426219337
