13

 N   -1.674440627500    1.314431895949    0.000516315900
 C   -0.500701044417    2.041804087459    0.000203836730
 H   -0.618417904480    3.127122546503    0.000087989171
 C   -1.720216600580   -0.078779895918    0.000131261331
 O   -2.771804769136   -0.712883209759    0.000474628435
 N   -0.459776059439   -0.662249952050    0.000548164653
 H   -0.449960262316   -1.680535063916    0.000520860558
 C    0.801478229794   -0.026194465087    0.000565259489
 O    1.835171157862   -0.695458299503   -0.000180406175
 C    0.719999438034    1.434352596303    0.000065362042
 H    1.643399576336    2.011412855169   -0.000275314735
 H   -2.578177803448    1.774086017309    0.000314664300
LI    7.878998383287   -4.608530425280   -0.004540186840
