13

 N   -1.679387884252    1.317634994213    0.000519884658
 C   -0.505648301169    2.045007185723    0.000207405488
 H   -0.623365161232    3.130325644767    0.000091557929
 C   -1.725163857332   -0.075576797654    0.000134830089
 O   -2.776752025888   -0.709680111495    0.000478197193
 N   -0.464723316191   -0.659046853786    0.000551733411
 H   -0.454907519068   -1.677331965652    0.000524429316
 C    0.796530973042   -0.022991366823    0.000568828247
 O    1.830223901110   -0.692255201239   -0.000176837417
 C    0.715052181282    1.437555694567    0.000068930800
 H    1.638452319584    2.014615953433   -0.000271745977
 H   -2.583125060200    1.777289115573    0.000318233058
LI    7.957993171332   -4.659675550985   -0.004597170591
