13

 N   -1.694229654507    1.327244289006    0.000530590930
 C   -0.520490071424    2.054616480516    0.000218111760
 H   -0.638206931487    3.139934939560    0.000102264201
 C   -1.740005627587   -0.065967502861    0.000145536361
 O   -2.791593796143   -0.700070816702    0.000488903465
 N   -0.479565086446   -0.649437558993    0.000562439683
 H   -0.469749289323   -1.667722670859    0.000535135588
 C    0.781689202787   -0.013382072030    0.000579534519
 O    1.815382130855   -0.682645906446   -0.000166131145
 C    0.700210411027    1.447164989360    0.000079637072
 H    1.623610549329    2.024225248226   -0.000261039705
 H   -2.597966830455    1.786898410366    0.000328939330
LI    8.194977535469   -4.813110928099   -0.004768121846
