13

 N   -1.738754965275    1.356072173384    0.000562709749
 C   -0.565015382192    2.083444364894    0.000250230579
 H   -0.682732242255    3.168762823938    0.000134383020
 C   -1.784530938355   -0.037139618483    0.000177655180
 O   -2.836119106911   -0.671242932324    0.000521022284
 N   -0.524090397214   -0.620609674615    0.000594558502
 H   -0.514274600091   -1.638894786481    0.000567254407
 C    0.737163892019    0.015445812348    0.000611653338
 O    1.770856820087   -0.653818022068   -0.000134012326
 C    0.655685100259    1.475992873738    0.000111755891
 H    1.579085238561    2.053053132604   -0.000228920886
 H   -2.642492141223    1.815726294744    0.000361058149
LI    8.905930627880   -5.273417059443   -0.005280975611
