13

 N   -1.748649478779    1.362478369912    0.000569847264
 C   -0.574909895696    2.089850561422    0.000257368094
 H   -0.692626755759    3.175169020466    0.000141520535
 C   -1.794425451859   -0.030733421955    0.000184792695
 O   -2.846013620415   -0.664836735796    0.000528159799
 N   -0.533984910718   -0.614203478087    0.000601696017
 H   -0.524169113595   -1.632488589953    0.000574391922
 C    0.727269378515    0.021852008876    0.000618790853
 O    1.760962306583   -0.647411825540   -0.000126874811
 C    0.645790586755    1.482399070266    0.000118893406
 H    1.569190725057    2.059459329132   -0.000221783371
 H   -2.652386654727    1.822132491272    0.000368195664
LI    9.063920203971   -5.375707310853   -0.005394943114
