13

 N   -1.753596735530    1.365681468176    0.000573416022
 C   -0.579857152447    2.093053659686    0.000260936852
 H   -0.697574012510    3.178372118730    0.000145089293
 C   -1.799372708610   -0.027530323691    0.000188361453
 O   -2.850960877166   -0.661633637532    0.000531728557
 N   -0.538932167469   -0.611000379823    0.000605264775
 H   -0.529116370346   -1.629285491689    0.000577960680
 C    0.722322121764    0.025055107140    0.000622359611
 O    1.756015049832   -0.644208727276   -0.000123306053
 C    0.640843330004    1.485602168530    0.000122462164
 H    1.564243468306    2.062662427396   -0.000218214613
 H   -2.657333911478    1.825335589536    0.000371764422
LI    9.142914992017   -5.426852436558   -0.005451926866
