13

 N   -1.763491249034    1.372087664705    0.000580553537
 C   -0.589751665951    2.099459856215    0.000268074367
 H   -0.707468526014    3.184778315259    0.000152226808
 C   -1.809267222114   -0.021124127162    0.000195498968
 O   -2.860855390670   -0.655227441003    0.000538866072
 N   -0.548826680973   -0.604594183294    0.000612402290
 H   -0.539010883850   -1.622879295160    0.000585098195
 C    0.712427608260    0.031461303669    0.000629497126
 O    1.746120536328   -0.637802530747   -0.000116168538
 C    0.630948816500    1.492008365059    0.000129599679
 H    1.554348954802    2.069068623925   -0.000211077098
 H   -2.667228424982    1.831741786065    0.000378901937
LI    9.300904568108   -5.529142687968   -0.005565894369
