13

 N   -1.773385762538    1.378493861233    0.000587691052
 C   -0.599646179455    2.105866052743    0.000275211882
 H   -0.717363039518    3.191184511787    0.000159364323
 C   -1.819161735618   -0.014717930634    0.000202636483
 O   -2.870749904174   -0.648821244475    0.000546003587
 N   -0.558721194477   -0.598187986766    0.000619539805
 H   -0.548905397354   -1.616473098632    0.000592235710
 C    0.702533094756    0.037867500197    0.000636634641
 O    1.736226022824   -0.631396334219   -0.000109031023
 C    0.621054302996    1.498414561587    0.000136737194
 H    1.544454441298    2.075474820453   -0.000203939583
 H   -2.677122938486    1.838147982593    0.000386039452
LI    9.458894144200   -5.631432939378   -0.005679861872
