13

 N   -1.783280276042    1.384900057762    0.000594828567
 C   -0.609540692959    2.112272249272    0.000282349397
 H   -0.727257553022    3.197590708316    0.000166501838
 C   -1.829056249122   -0.008311734105    0.000209773998
 O   -2.880644417678   -0.642415047946    0.000553141102
 N   -0.568615707981   -0.591781790237    0.000626677320
 H   -0.558799910858   -1.610066902103    0.000599373225
 C    0.692638581252    0.044273696726    0.000643772156
 O    1.726331509320   -0.624990137690   -0.000101893508
 C    0.611159789492    1.504820758116    0.000143874709
 H    1.534559927794    2.081881016982   -0.000196802068
 H   -2.687017451990    1.844554179122    0.000393176967
LI    9.616883720291   -5.733723190788   -0.005793829376
