16

 N   -3.512377310605    0.864837961519   -0.025365523762
 C   -2.280251578338    0.234547681511   -0.024410563454
 N   -2.010110642212   -1.086337793457   -0.027874752401
 C   -0.681981473749   -1.304531686207   -0.012307323738
 H   -0.368173190779   -2.351210418697   -0.008927753047
 N    0.330367969292   -0.396550729066    0.001663946537
 C    0.018151225385    0.914270354183   -0.002982457363
 N    1.025778180187    1.838768991488   -0.044804294294
 H    1.957229717574    1.508238882736    0.177653639839
 H    0.793040674160    2.798739746527    0.180005951146
 C   -1.347349615489    1.290964208050   -0.011753545078
 N   -1.970878926680    2.529929908680   -0.001875336060
 C   -3.270804413837    2.221850520319   -0.010330189218
 H   -4.080857942624    2.948431321421   -0.006282051355
 H   -4.416166987775    0.404580837685   -0.032968579695
CS    1.375786778303   -0.738541116944    0.013584029031
