16

 N   -3.606653177224    0.895678654182   -0.026440476783
 C   -2.374527444957    0.265388374174   -0.025485516475
 N   -2.104386508831   -1.055497100794   -0.028949705422
 C   -0.776257340368   -1.273690993544   -0.013382276759
 H   -0.462449057398   -2.320369726034   -0.010002706068
 N    0.236092102673   -0.365710036403    0.000588993516
 C   -0.076124641234    0.945111046846   -0.004057410384
 N    0.931502313568    1.869609684151   -0.045879247315
 H    1.862953850955    1.539079575399    0.176578686818
 H    0.698764807541    2.829580439190    0.178930998125
 C   -1.441625482108    1.321804900713   -0.012828498099
 N   -2.065154793299    2.560770601343   -0.002950289081
 C   -3.365080280456    2.252691212982   -0.011405142239
 H   -4.175133809243    2.979272014084   -0.007357004376
 H   -4.510442854394    0.435421530348   -0.034043532716
CS    1.471587058776   -0.769880494805    0.014676363736
