16

 N   -3.795204910463    0.957360039508   -0.028590382826
 C   -2.563079178196    0.327069759500   -0.027635422518
 N   -2.292938242070   -0.993815715468   -0.031099611465
 C   -0.964809073607   -1.212009608218   -0.015532182802
 H   -0.651000790637   -2.258688340708   -0.012152612111
 N    0.047540369434   -0.304028651077   -0.001560912527
 C   -0.264676374473    1.006792432172   -0.006207316427
 N    0.742950580329    1.931291069477   -0.048029153358
 H    1.674402117716    1.600760960725    0.174428780775
 H    0.510213074302    2.891261824516    0.176781092082
 C   -1.630177215347    1.383486286039   -0.014978404142
 N   -2.253706526538    2.622451986669   -0.005100195124
 C   -3.553632013695    2.314372598308   -0.013555048282
 H   -4.363685542482    3.040953399410   -0.009506910419
 H   -4.698994587633    0.497102915674   -0.036193438759
CS    1.663187619722   -0.832559250525    0.016861033146
