16

 N   -3.889480777083    0.988200732170   -0.029665335847
 C   -2.657355044816    0.357910452162   -0.028710375539
 N   -2.387214108690   -0.962975022806   -0.032174564486
 C   -1.059084940227   -1.181168915556   -0.016607135823
 H   -0.745276657257   -2.227847648046   -0.013227565132
 N   -0.046735497186   -0.273187958415   -0.002635865548
 C   -0.358952241093    1.037633124834   -0.007282269448
 N    0.648674713709    1.962131762139   -0.049104106379
 H    1.580126251096    1.631601653387    0.173353827754
 H    0.415937207682    2.922102517178    0.175706139061
 C   -1.724453081967    1.414326978701   -0.016053357163
 N   -2.347982393158    2.653292679331   -0.006175148145
 C   -3.647907880315    2.345213290970   -0.014630001303
 H   -4.457961409102    3.071794092072   -0.010581863440
 H   -4.793270454253    0.527943608336   -0.037268391780
CS    1.758987900195   -0.863898628386    0.017953367851
