16

 N   -4.266584243561    1.111563502822   -0.033965147933
 C   -3.034458511294    0.481273222814   -0.033010187625
 N   -2.764317575168   -0.839612252154   -0.036474376572
 C   -1.436188406705   -1.057806144904   -0.020906947909
 H   -1.122380123735   -2.104484877394   -0.017527377218
 N   -0.423838963664   -0.149825187763   -0.006935677634
 C   -0.736055707571    1.160995895486   -0.011582081534
 N    0.271571247231    2.085494532791   -0.053403918465
 H    1.203022784618    1.754964424039    0.169054015668
 H    0.038833741204    3.045465287830    0.171406326975
 C   -2.101556548445    1.537689749353   -0.020353169249
 N   -2.725085859636    2.776655449983   -0.010474960231
 C   -4.025011346793    2.468576061622   -0.018929813389
 H   -4.835064875580    3.195156862724   -0.014881675526
 H   -5.170373920731    0.651306378988   -0.041568203866
CS    2.142189022088   -0.989256139827    0.022322706670
