16

 N   -4.360860110181    1.142404195485   -0.035040100954
 C   -3.128734377914    0.512113915477   -0.034085140646
 N   -2.858593441788   -0.808771559491   -0.037549329593
 C   -1.530464273325   -1.026965452241   -0.021981900930
 H   -1.216655990355   -2.073644184731   -0.018602330239
 N   -0.518114830284   -0.118984495100   -0.008010630655
 C   -0.830331574191    1.191836588149   -0.012657034555
 N    0.177295380611    2.116335225454   -0.054478871486
 H    1.108746917998    1.785805116702    0.167979062647
 H   -0.055442125416    3.076305980493    0.170331373954
 C   -2.195832415065    1.568530442016   -0.021428122270
 N   -2.819361726256    2.807496142646   -0.011549913252
 C   -4.119287213413    2.499416754285   -0.020004766410
 H   -4.929340742200    3.225997555387   -0.015956628547
 H   -5.264649787351    0.682147071651   -0.042643156887
CS    2.237989302561   -1.020595517687    0.023415041375
