16

 N   -4.549411843420    1.204085580811   -0.037190006997
 C   -3.317286111153    0.573795300803   -0.036235046689
 N   -3.047145175027   -0.747090174165   -0.039699235636
 C   -1.719016006564   -0.965284066915   -0.024131806973
 H   -1.405207723594   -2.011962799405   -0.020752236282
 N   -0.706666563523   -0.057303109774   -0.010160536698
 C   -1.018883307430    1.253517973475   -0.014806940598
 N   -0.011256352628    2.178016610780   -0.056628777529
 H    0.920195184759    1.847486502028    0.165829156604
 H   -0.243993858655    3.137987365819    0.168181467911
 C   -2.384384148304    1.630211827342   -0.023578028313
 N   -3.007913459495    2.869177527972   -0.013699819295
 C   -4.307838946652    2.561098139611   -0.022154672453
 H   -5.117892475439    3.287678940713   -0.018106534590
 H   -5.453201520590    0.743828456977   -0.044793062930
CS    2.429589863507   -1.083274273408    0.025599710785
