16

 N   -4.737963576659    1.265766966137   -0.039339913040
 C   -3.505837844392    0.635476686129   -0.038384952732
 N   -3.235696908266   -0.685408788839   -0.041849141679
 C   -1.907567739803   -0.903602681589   -0.026281713016
 H   -1.593759456833   -1.950281414079   -0.022902142325
 N   -0.895218296762    0.004378275552   -0.012310442741
 C   -1.207435040669    1.315199358801   -0.016956846641
 N   -0.199808085867    2.239697996106   -0.058778683572
 H    0.731643451520    1.909167887354    0.163679250561
 H   -0.432545591894    3.199668751145    0.166031561868
 C   -2.572935881543    1.691893212668   -0.025727934356
 N   -3.196465192734    2.930858913298   -0.015849725338
 C   -4.496390679891    2.622779524937   -0.024304578496
 H   -5.306444208678    3.349360326039   -0.020256440633
 H   -5.641753253829    0.805509842303   -0.046942968973
CS    2.621190424454   -1.145953029129    0.027784380195
