16

 N   -4.785101509969    1.281187312469   -0.039877389550
 C   -3.552975777702    0.650897032461   -0.038922429242
 N   -3.282834841576   -0.669988442507   -0.042386618189
 C   -1.954705673113   -0.888182335257   -0.026819189526
 H   -1.640897390143   -1.934861067747   -0.023439618835
 N   -0.942356230072    0.019798621884   -0.012847919251
 C   -1.254572973979    1.330619705133   -0.017494323151
 N   -0.246946019177    2.255118342438   -0.059316160082
 H    0.684505518210    1.924588233686    0.163141774051
 H   -0.479683525204    3.215089097477    0.165494085358
 C   -2.620073814853    1.707313559000   -0.026265410866
 N   -3.243603126044    2.946279259630   -0.016387201848
 C   -4.543528613201    2.638199871269   -0.024842055006
 H   -5.353582141988    3.364780672371   -0.020793917143
 H   -5.688891187139    0.820930188635   -0.047480445483
CS    2.669090564690   -1.161622718059    0.028330547547
