16

 N   -4.832239443279    1.296607658800   -0.040414866061
 C   -3.600113711012    0.666317378792   -0.039459905753
 N   -3.329972774886   -0.654568096176   -0.042924094700
 C   -2.001843606423   -0.872761988926   -0.027356666037
 H   -1.688035323453   -1.919440721416   -0.023977095346
 N   -0.989494163382    0.035218968215   -0.013385395762
 C   -1.301710907289    1.346040051464   -0.018031799662
 N   -0.294083952487    2.270538688769   -0.059853636593
 H    0.637367584900    1.940008580017    0.162604297540
 H   -0.526821458514    3.230509443808    0.164956608847
 C   -2.667211748163    1.722733905331   -0.026802887377
 N   -3.290741059354    2.961699605961   -0.016924678359
 C   -4.590666546511    2.653620217600   -0.025379531517
 H   -5.400720075298    3.380201018702   -0.021331393654
 H   -5.736029120449    0.836350534966   -0.048017921994
CS    2.716990704927   -1.177292406989    0.028876714900
