16

 N   -4.879377376589    1.312028005132   -0.040952342572
 C   -3.647251644322    0.681737725124   -0.039997382264
 N   -3.377110708196   -0.639147749844   -0.043461571211
 C   -2.048981539733   -0.857341642594   -0.027894142548
 H   -1.735173256763   -1.904020375084   -0.024514571857
 N   -1.036632096692    0.050639314547   -0.013922872273
 C   -1.348848840599    1.361460397796   -0.018569276173
 N   -0.341221885797    2.285959035101   -0.060391113104
 H    0.590229651590    1.955428926349    0.162066821029
 H   -0.573959391824    3.245929790140    0.164419132336
 C   -2.714349681473    1.738154251663   -0.027340363888
 N   -3.337878992664    2.977119952293   -0.017462154870
 C   -4.637804479821    2.669040563932   -0.025917008028
 H   -5.447858008608    3.395621365034   -0.021868870165
 H   -5.783167053759    0.851770881298   -0.048555398505
CS    2.764890845164   -1.192962095919    0.029422882252
