16

 N   -5.020791176518    1.358289044126   -0.042564772104
 C   -3.788665444251    0.727998764118   -0.041609811796
 N   -3.518524508125   -0.592886710850   -0.045074000743
 C   -2.190395339662   -0.811080603600   -0.029506572080
 H   -1.876587056692   -1.857759336090   -0.026127001389
 N   -1.178045896621    0.096900353541   -0.015535301805
 C   -1.490262640528    1.407721436790   -0.020181705705
 N   -0.482635685726    2.332220074095   -0.062003542636
 H    0.448815851661    2.001689965343    0.160454391497
 H   -0.715373191753    3.292190829134    0.162806702804
 C   -2.855763481402    1.784415290657   -0.028952793420
 N   -3.479292792593    3.023380991287   -0.019074584402
 C   -4.779218279750    2.715301602926   -0.027529437560
 H   -5.589271808537    3.441882404028   -0.023481299697
 H   -5.924580853688    0.898031920292   -0.050167828037
CS    2.908591265873   -1.239971162709    0.031061384310
