16

 N   -5.115067043138    1.389129736789   -0.043639725125
 C   -3.882941310871    0.758839456781   -0.042684764817
 N   -3.612800374745   -0.562046018187   -0.046148953764
 C   -2.284671206282   -0.780239910937   -0.030581525101
 H   -1.970862923312   -1.826918643427   -0.027201954410
 N   -1.272321763241    0.127741046204   -0.016610254826
 C   -1.584538507148    1.438562129453   -0.021256658726
 N   -0.576911552346    2.363060766758   -0.063078495657
 H    0.354539985041    2.032530658006    0.159379438476
 H   -0.809649058373    3.323031521797    0.161731749783
 C   -2.950039348022    1.815255983320   -0.030027746441
 N   -3.573568659213    3.054221683950   -0.020149537423
 C   -4.873494146370    2.746142295589   -0.028604390581
 H   -5.683547675157    3.472723096691   -0.024556252718
 H   -6.018856720308    0.928872612955   -0.051242781058
CS    3.004391546346   -1.271310540570    0.032153719014
