16

 N   -5.162204976448    1.404550083121   -0.044177201636
 C   -3.930079244181    0.774259803113   -0.043222241328
 N   -3.659938308055   -0.546625671855   -0.046686430275
 C   -2.331809139592   -0.764819564605   -0.031119001612
 H   -2.018000856622   -1.811498297095   -0.027739430921
 N   -1.319459696551    0.143161392536   -0.017147731337
 C   -1.631676440458    1.453982475785   -0.021794135237
 N   -0.624049485656    2.378481113090   -0.063615972168
 H    0.307402051731    2.047951004338    0.158841961965
 H   -0.856786991683    3.338451868129    0.161194273272
 C   -2.997177281332    1.830676329652   -0.030565222952
 N   -3.620706592523    3.069642030282   -0.020687013934
 C   -4.920632079680    2.761562641921   -0.029141867092
 H   -5.730685608467    3.488143443023   -0.025093729229
 H   -6.065994653618    0.944292959287   -0.051780257569
CS    3.052291686583   -1.286980229500    0.032699886367
