16

 N   -5.256480843067    1.435390775784   -0.045252154657
 C   -4.024355110800    0.805100495776   -0.044297194349
 N   -3.754214174674   -0.515784979192   -0.047761383296
 C   -2.426085006211   -0.733978871942   -0.032193954633
 H   -2.112276723241   -1.780657604432   -0.028814383942
 N   -1.413735563170    0.174002085199   -0.018222684358
 C   -1.725952307077    1.484823168448   -0.022869088258
 N   -0.718325352275    2.409321805753   -0.064690925189
 H    0.213126185112    2.078791697001    0.157767008944
 H   -0.951062858302    3.369292560792    0.160119320251
 C   -3.091453147951    1.861517022315   -0.031640175973
 N   -3.714982459142    3.100482722945   -0.021761966955
 C   -5.014907946299    2.792403334584   -0.030216820113
 H   -5.824961475086    3.518984135686   -0.026168682250
 H   -6.160270520237    0.975133651950   -0.052855210590
CS    3.148091967056   -1.318319607360    0.033792221072
