16

 N   -5.397894642997    1.481651814778   -0.046864584189
 C   -4.165768910730    0.851361534770   -0.045909623881
 N   -3.895627974604   -0.469523940198   -0.049373812828
 C   -2.567498806141   -0.687717832948   -0.033806384165
 H   -2.253690523171   -1.734396565438   -0.030426813474
 N   -1.555149363100    0.220263124193   -0.019835113890
 C   -1.867366107007    1.531084207442   -0.024481517790
 N   -0.859739152205    2.455582844747   -0.066303354721
 H    0.071712385182    2.125052735995    0.156154579412
 H   -1.092476658232    3.415553599786    0.158506890719
 C   -3.232866947881    1.907778061309   -0.033252605505
 N   -3.856396259072    3.146743761939   -0.023374396487
 C   -5.156321746229    2.838664373578   -0.031829249645
 H   -5.966375275016    3.565245174680   -0.027781111782
 H   -6.301684320167    1.021394690944   -0.054467640122
CS    3.291792387766   -1.365328674151    0.035430723129
