16

 N   -5.492170509616    1.512492507441   -0.047939537210
 C   -4.260044777349    0.882202227433   -0.046984576902
 N   -3.989903841223   -0.438683247535   -0.050448765849
 C   -2.661774672760   -0.656877140285   -0.034881337186
 H   -2.347966389790   -1.703555872775   -0.031501766495
 N   -1.649425229719    0.251103816856   -0.020910066911
 C   -1.961641973626    1.561924900105   -0.025556470811
 N   -0.954015018824    2.486423537410   -0.067378307742
 H   -0.022563481437    2.155893428658    0.155079626391
 H   -1.186752524851    3.446394292449    0.157431937698
 C   -3.327142814500    1.938618753972   -0.034327558526
 N   -3.950672125691    3.177584454602   -0.024449349508
 C   -5.250597612848    2.869505066241   -0.032904202666
 H   -6.060651141635    3.596085867343   -0.028856064803
 H   -6.395960186786    1.052235383607   -0.055542593143
CS    3.387592668239   -1.396668052011    0.036523057834
