16

 N   -5.539308442926    1.527912853773   -0.048477013721
 C   -4.307182710659    0.897622573765   -0.047522053413
 N   -4.037041774533   -0.423262901203   -0.050986242360
 C   -2.708912606070   -0.641456793953   -0.035418813697
 H   -2.395104323100   -1.688135526443   -0.032039243006
 N   -1.696563163029    0.266524163188   -0.021447543422
 C   -2.008779906936    1.577345246437   -0.026093947322
 N   -1.001152952134    2.501843883742   -0.067915784253
 H   -0.069701414747    2.171313774990    0.154542149880
 H   -1.233890458161    3.461814638781    0.156894461187
 C   -3.374280747810    1.954039100304   -0.034865035037
 N   -3.997810059001    3.193004800934   -0.024986826019
 C   -5.297735546158    2.884925412573   -0.033441679177
 H   -6.107789074945    3.611506213675   -0.029393541314
 H   -6.443098120096    1.067655729939   -0.056080069654
CS    3.435492808476   -1.412337740941    0.037069225186
