16

 N   -6.199239509263    1.743797702413   -0.056001684871
 C   -4.967113776996    1.113507422405   -0.055046724563
 N   -4.696972840870   -0.207378052563   -0.058510913510
 C   -3.368843672407   -0.425571945313   -0.042943484847
 H   -3.055035389437   -1.472250677803   -0.039563914156
 N   -2.356494229366    0.482409011828   -0.028972214572
 C   -2.668710973273    1.793230095077   -0.033618618472
 N   -1.661084018471    2.717728732382   -0.075440455403
 H   -0.729632481084    2.387198623630    0.147017478730
 H   -1.893821524498    3.677699487421    0.149369790037
 C   -4.034211814147    2.169923948944   -0.042389706187
 N   -4.657741125338    3.408889649574   -0.032511497169
 C   -5.957666612495    3.100810261213   -0.040966350327
 H   -6.767720141282    3.827391062315   -0.036918212464
 H   -7.103029186433    1.283540578579   -0.063604740804
CS    4.106094771788   -1.631713385963    0.044715568121
