16

 N   -6.246377442573    1.759218048745   -0.056539161381
 C   -5.014251710306    1.128927768737   -0.055584201073
 N   -4.744110774180   -0.191957706231   -0.059048390020
 C   -3.415981605717   -0.410151598981   -0.043480961357
 H   -3.102173322747   -1.456830331471   -0.040101390666
 N   -2.403632162676    0.497829358160   -0.029509691082
 C   -2.715848906583    1.808650441409   -0.034156094982
 N   -1.708221951781    2.733149078714   -0.075977931913
 H   -0.776770414394    2.402618969962    0.146480002220
 H   -1.940959457808    3.693119833753    0.148832313527
 C   -4.081349747457    2.185344295276   -0.042927182697
 N   -4.704879058648    3.424309995906   -0.033048973679
 C   -6.004804545805    3.116230607545   -0.041503826837
 H   -6.814858074592    3.842811408647   -0.037455688974
 H   -7.150167119743    1.298960924911   -0.064142217314
CS    4.153994912025   -1.647383074894    0.045261735473
