16

 N   -6.434929175812    1.820899434071   -0.058689067424
 C   -5.202803443545    1.190609154063   -0.057734107116
 N   -4.932662507419   -0.130276320905   -0.061198296063
 C   -3.604533338956   -0.348470213655   -0.045630867400
 H   -3.290725055986   -1.395148946145   -0.042251296709
 N   -2.592183895915    0.559510743486   -0.031659597125
 C   -2.904400639822    1.870331826735   -0.036306001025
 N   -1.896773685020    2.794830464040   -0.078127837956
 H   -0.965322147633    2.464300355288    0.144330096177
 H   -2.129511191047    3.754801219079    0.146682407484
 C   -4.269901480696    2.247025680602   -0.045077088740
 N   -4.893430791887    3.485991381232   -0.035198879722
 C   -6.193356279044    3.177911992871   -0.043653732880
 H   -7.003409807831    3.904492793973   -0.039605595017
 H   -7.338718852982    1.360642310237   -0.066292123357
CS    4.345595472971   -1.710061830614    0.047446404883
