16

 N   -6.717756775671    1.913421512060   -0.061913926488
 C   -5.485631043404    1.283131232052   -0.060958966180
 N   -5.215490107278   -0.037754242916   -0.064423155127
 C   -3.887360938815   -0.255948135666   -0.048855726464
 H   -3.573552655845   -1.302626868156   -0.045476155773
 N   -2.875011495774    0.652032821475   -0.034884456189
 C   -3.187228239681    1.962853904724   -0.039530860089
 N   -2.179601284879    2.887352542029   -0.081352697020
 H   -1.248149747492    2.556822433277    0.141105237113
 H   -2.412338790906    3.847323297068    0.143457548420
 C   -4.552729080555    2.339547758591   -0.048301947804
 N   -5.176258391746    3.578513459221   -0.038423738786
 C   -6.476183878903    3.270434070860   -0.046878591944
 H   -7.286237407690    3.997014871962   -0.042830454081
 H   -7.621546452841    1.453164388226   -0.069516982421
CS    4.632996314390   -1.804079964195    0.050723408997
