16

 N   -6.764894708981    1.928841858391   -0.062451402999
 C   -5.532768976714    1.298551578383   -0.061496442691
 N   -5.262628040588   -0.022333896585   -0.064960631638
 C   -3.934498872125   -0.240527789335   -0.049393202975
 H   -3.620690589155   -1.287206521825   -0.046013632284
 N   -2.922149429084    0.667453167806   -0.035421932700
 C   -3.234366172991    1.978274251055   -0.040068336600
 N   -2.226739218189    2.902772888360   -0.081890173531
 H   -1.295287680802    2.572242779608    0.140567760602
 H   -2.459476724216    3.862743643399    0.142920071909
 C   -4.599867013865    2.354968104922   -0.048839424315
 N   -5.223396325056    3.593933805552   -0.038961215297
 C   -6.523321812213    3.285854417191   -0.047416068455
 H   -7.333375341000    4.012435218293   -0.043367930592
 H   -7.668684386151    1.468584734557   -0.070054458932
CS    4.680896454627   -1.819749653125    0.051269576350
