16

 N   -6.812032642290    1.944262204723   -0.062988879509
 C   -5.579906910023    1.313971924715   -0.062033919201
 N   -5.309765973897   -0.006913550253   -0.065498108148
 C   -3.981636805434   -0.225107443003   -0.049930679485
 H   -3.667828522464   -1.271786175493   -0.046551108794
 N   -2.969287362393    0.682873514138   -0.035959409210
 C   -3.281504106300    1.993694597387   -0.040605813110
 N   -2.273877151498    2.918193234692   -0.082427650041
 H   -1.342425614111    2.587663125940    0.140030284092
 H   -2.506614657525    3.878163989731    0.142382595399
 C   -4.647004947174    2.370388451254   -0.049376900825
 N   -5.270534258365    3.609354151884   -0.039498691807
 C   -6.570459745522    3.301274763523   -0.047953544965
 H   -7.380513274309    4.027855564625   -0.043905407102
 H   -7.715822319460    1.484005080889   -0.070591935442
CS    4.728796594864   -1.835419342055    0.051815743702
