16

 N   -6.859170575600    1.959682551054   -0.063526356020
 C   -5.627044843333    1.329392271046   -0.062571395712
 N   -5.356903907207    0.008506796078   -0.066035584659
 C   -4.028774738744   -0.209687096672   -0.050468155996
 H   -3.714966455774   -1.256365829162   -0.047088585305
 N   -3.016425295703    0.698293860469   -0.036496885721
 C   -3.328642039610    2.009114943718   -0.041143289621
 N   -2.321015084808    2.933613581023   -0.082965126552
 H   -1.389563547421    2.603083472271    0.139492807581
 H   -2.553752590835    3.893584336062    0.141845118888
 C   -4.694142880484    2.385808797585   -0.049914377336
 N   -5.317672191675    3.624774498215   -0.040036168318
 C   -6.617597678832    3.316695109854   -0.048491021476
 H   -7.427651207619    4.043275910956   -0.044442883613
 H   -7.762960252770    1.499425427220   -0.071129411953
CS    4.776696735100   -1.851089030986    0.052361911055
