16

 N   -6.906308508910    1.975102897386   -0.064063832531
 C   -5.674182776643    1.344812617378   -0.063108872223
 N   -5.404041840517    0.023927142410   -0.066573061170
 C   -4.075912672054   -0.194266750340   -0.051005632507
 H   -3.762104389084   -1.240945482830   -0.047626061816
 N   -3.063563229013    0.713714206801   -0.037034362232
 C   -3.375779972920    2.024535290050   -0.041680766132
 N   -2.368153018118    2.949033927355   -0.083502603063
 H   -1.436701480731    2.618503818603    0.138955331070
 H   -2.600890524145    3.909004682394    0.141307642377
 C   -4.741280813794    2.401229143917   -0.050451853847
 N   -5.364810124985    3.640194844547   -0.040573644829
 C   -6.664735612142    3.332115456186   -0.049028497987
 H   -7.474789140929    4.058696257288   -0.044980360124
 H   -7.810098186080    1.514845773552   -0.071666888464
CS    4.824596875337   -1.866758719916    0.052908078407
