16

 N   -7.000584375530    2.005943590049   -0.065138785552
 C   -5.768458643263    1.375653310041   -0.064183825244
 N   -5.498317707137    0.054767835073   -0.067648014191
 C   -4.170188538674   -0.163426057677   -0.052080585528
 H   -3.856380255704   -1.210104790167   -0.048701014837
 N   -3.157839095633    0.744554899464   -0.038109315253
 C   -3.470055839540    2.055375982713   -0.042755719153
 N   -2.462428884738    2.979874620018   -0.084577556084
 H   -1.530977347351    2.649344511266    0.137880378049
 H   -2.695166390765    3.939845375057    0.140232689356
 C   -4.835556680414    2.432069836580   -0.051526806868
 N   -5.459085991605    3.671035537210   -0.041648597850
 C   -6.759011478762    3.362956148849   -0.050103451008
 H   -7.569065007549    4.089536949951   -0.046055313145
 H   -7.904374052700    1.545686466215   -0.072741841485
CS    4.920397155810   -1.898098097776    0.054000413112
