16

 N   -7.047722308839    2.021363936380   -0.065676262063
 C   -5.815596576572    1.391073656372   -0.064721301755
 N   -5.545455640446    0.070188181404   -0.068185490702
 C   -4.217326471983   -0.148005711346   -0.052618062039
 H   -3.903518189013   -1.194684443836   -0.049238491348
 N   -3.204977028942    0.759975245795   -0.038646791764
 C   -3.517193772849    2.070796329044   -0.043293195664
 N   -2.509566818047    2.995294966349   -0.085115032595
 H   -1.578115280660    2.664764857597    0.137342901538
 H   -2.742304324074    3.955265721388    0.139695212845
 C   -4.882694613723    2.447490182911   -0.052064283379
 N   -5.506223924914    3.686455883541   -0.042186074361
 C   -6.806149412071    3.378376495180   -0.050640927519
 H   -7.616202940858    4.104957296282   -0.046592789656
 H   -7.951511986009    1.561106812546   -0.073279317996
CS    4.968297296046   -1.913767786706    0.054546580465
