16

 N   -7.283411975388    2.098465668038   -0.068363644616
 C   -6.051286243121    1.468175388030   -0.067408684308
 N   -5.781145306995    0.147289913062   -0.070872873255
 C   -4.453016138532   -0.070903979688   -0.055305444592
 H   -4.139207855562   -1.117582712178   -0.051925873901
 N   -3.440666695491    0.837076977453   -0.041334174317
 C   -3.752883439398    2.147898060702   -0.045980578217
 N   -2.745256484596    3.072396698007   -0.087802415148
 H   -1.813804947209    2.741866589255    0.134655518985
 H   -2.977993990623    4.032367453046    0.137007830292
 C   -5.118384280272    2.524591914569   -0.054751665932
 N   -5.741913591463    3.763557615199   -0.044873456914
 C   -7.041839078620    3.455478226838   -0.053328310072
 H   -7.851892607407    4.182059027940   -0.049280172209
 H   -8.187201652558    1.638208544204   -0.075966700549
CS    5.207797997229   -1.992116231357    0.057277417227
