16

 N   -7.330549908698    2.113886014369   -0.068901121127
 C   -6.098424176431    1.483595734361   -0.067946160819
 N   -5.828283240305    0.162710259393   -0.071410349766
 C   -4.500154071842   -0.055483633357   -0.055842921103
 H   -4.186345788872   -1.102162365847   -0.052463350412
 N   -3.487804628801    0.852497323784   -0.041871650828
 C   -3.800021372708    2.163318407033   -0.046518054728
 N   -2.792394417906    3.087817044338   -0.088339891659
 H   -1.860942880519    2.757286935586    0.134118042474
 H   -3.025131923933    4.047787799377    0.136470353781
 C   -5.165522213582    2.540012260900   -0.055289142443
 N   -5.789051524773    3.778977961530   -0.045410933425
 C   -7.088977011930    3.470898573169   -0.053865786583
 H   -7.899030540717    4.197479374271   -0.049817648720
 H   -8.234339585868    1.653628890535   -0.076504177060
CS    5.255698137466   -2.007785920287    0.057823584579
