16

 N   -7.424825775318    2.144726707032   -0.069976074148
 C   -6.192700043051    1.514436427024   -0.069021113840
 N   -5.922559106925    0.193550952056   -0.072485302787
 C   -4.594429938462   -0.024642940694   -0.056917874124
 H   -4.280621655492   -1.071321673184   -0.053538303433
 N   -3.582080495421    0.883338016447   -0.042946603849
 C   -3.894297239328    2.194159099696   -0.047593007749
 N   -2.886670284526    3.118657737001   -0.089414844680
 H   -1.955218747139    2.788127628249    0.133043089453
 H   -3.119407790553    4.078628492040    0.135395400760
 C   -5.259798080202    2.570852953563   -0.056364095464
 N   -5.883327391393    3.809818654193   -0.046485886446
 C   -7.183252878550    3.501739265832   -0.054940739604
 H   -7.993306407337    4.228320066934   -0.050892601741
 H   -8.328615452488    1.684469583198   -0.077579130081
CS    5.351498417939   -2.039125298147    0.058915919284
