16

 N   -7.613377508557    2.206408092358   -0.072125980191
 C   -6.381251776290    1.576117812350   -0.071171019883
 N   -6.111110840164    0.255232337382   -0.074635208830
 C   -4.782981671701    0.037038444632   -0.059067780167
 H   -4.469173388731   -1.009640287858   -0.055688209476
 N   -3.770632228660    0.945019401773   -0.045096509892
 C   -4.082848972567    2.255840485022   -0.049742913792
 N   -3.075222017765    3.180339122327   -0.091564750723
 H   -2.143770480378    2.849809013575    0.130893183410
 H   -3.307959523792    4.140309877366    0.133245494717
 C   -5.448349813441    2.632534338889   -0.058514001507
 N   -6.071879124632    3.871500039519   -0.048635792489
 C   -7.371804611789    3.563420651158   -0.057090645647
 H   -8.181858140576    4.290001452260   -0.053042507784
 H   -8.517167185727    1.746150968524   -0.079729036124
CS    5.543098978886   -2.101804053868    0.061100588694
