16

 N   -7.660515441867    2.221828438689   -0.072663456702
 C   -6.428389709600    1.591538158681   -0.071708496394
 N   -6.158248773474    0.270652683713   -0.075172685341
 C   -4.830119605011    0.052458790963   -0.059605256678
 H   -4.516311322041   -0.994219941527   -0.056225685987
 N   -3.817770161970    0.960439748104   -0.045633986403
 C   -4.129986905877    2.271260831353   -0.050280390303
 N   -3.122359951075    3.195759468658   -0.092102227234
 H   -2.190908413688    2.865229359906    0.130355706899
 H   -3.355097457102    4.155730223697    0.132708018206
 C   -5.495487746751    2.647954685220   -0.059051478018
 N   -6.119017057942    3.886920385850   -0.049173269000
 C   -7.418942545099    3.578840997489   -0.057628122158
 H   -8.228996073886    4.305421798591   -0.053579984295
 H   -8.564305119037    1.761571314855   -0.080266512635
CS    5.590999119122   -2.117473742798    0.061646756046
