19

 H    4.110087238647    1.348520019557   -0.902780000000
 H    2.908587238647    2.322860019557    0.000000000000
 H    4.110087238647    1.348520019557    0.902780000000
 C    3.486777238647    1.389500019557    0.000000000000
 S    2.315837238647    0.000000019557    0.000000000000
 C    3.486777238647   -1.389499980443    0.000000000000
 H    4.110087238647   -1.348519980443    0.902780000000
 H    2.908587238647   -2.322859980443    0.000000000000
 H    4.110087238647   -1.348519980443   -0.902780000000
 K   -0.623882761353    0.000000019557    0.000000000000
 S   -1.923882761353    0.000000019557    0.000000000000
 C   -3.094815796393   -1.389494692146    0.000000000000
 H   -3.718135078438   -1.348515024702    0.902787044872
 H   -2.516633918436   -2.322852073271    0.000000000000
 H   -3.718135078438   -1.348515024702   -0.902787044872
 C   -3.094816038906    1.389494526894    0.000000000000
 H   -3.718135313798    1.348514750661   -0.902787044872
 H   -2.516634323850    2.322852008931    0.000000000000
 H   -3.718135313798    1.348514750661    0.902787044872
