19

 H    4.186183380761    1.348520019557   -0.902780000000
 H    2.984683380761    2.322860019557    0.000000000000
 H    4.186183380761    1.348520019557    0.902780000000
 C    3.562873380761    1.389500019557    0.000000000000
 S    2.391933380761    0.000000019557    0.000000000000
 C    3.562873380761   -1.389499980443    0.000000000000
 H    4.186183380761   -1.348519980443    0.902780000000
 H    2.984683380761   -2.322859980443    0.000000000000
 H    4.186183380761   -1.348519980443   -0.902780000000
 K   -0.547786619239    0.000000019557    0.000000000000
 S   -2.047786619239    0.000000019557    0.000000000000
 C   -3.218719654280   -1.389494692146    0.000000000000
 H   -3.842038936324   -1.348515024702    0.902787044872
 H   -2.640537776323   -2.322852073271    0.000000000000
 H   -3.842038936324   -1.348515024702   -0.902787044872
 C   -3.218719896792    1.389494526894    0.000000000000
 H   -3.842039171685    1.348514750661   -0.902787044872
 H   -2.640538181737    2.322852008931    0.000000000000
 H   -3.842039171685    1.348514750661    0.902787044872
