19

 H    4.452519878158    1.348520019557   -0.902780000000
 H    3.251019878158    2.322860019557    0.000000000000
 H    4.452519878158    1.348520019557    0.902780000000
 C    3.829209878158    1.389500019557    0.000000000000
 S    2.658269878158    0.000000019557    0.000000000000
 C    3.829209878158   -1.389499980443    0.000000000000
 H    4.452519878158   -1.348519980443    0.902780000000
 H    3.251019878158   -2.322859980443    0.000000000000
 H    4.452519878158   -1.348519980443   -0.902780000000
 K   -0.281450121842    0.000000019557    0.000000000000
 S   -2.481450121842    0.000000019557    0.000000000000
 C   -3.652383156882   -1.389494692146    0.000000000000
 H   -4.275702438927   -1.348515024702    0.902787044872
 H   -3.074201278925   -2.322852073271    0.000000000000
 H   -4.275702438927   -1.348515024702   -0.902787044872
 C   -3.652383399395    1.389494526894    0.000000000000
 H   -4.275702674287    1.348514750661   -0.902787044872
 H   -3.074201684339    2.322852008931    0.000000000000
 H   -4.275702674287    1.348514750661    0.902787044872
