19

 H    4.566664091329    1.348520019557   -0.902780000000
 H    3.365164091329    2.322860019557    0.000000000000
 H    4.566664091329    1.348520019557    0.902780000000
 C    3.943354091329    1.389500019557    0.000000000000
 S    2.772414091329    0.000000019557    0.000000000000
 C    3.943354091329   -1.389499980443    0.000000000000
 H    4.566664091329   -1.348519980443    0.902780000000
 H    3.365164091329   -2.322859980443    0.000000000000
 H    4.566664091329   -1.348519980443   -0.902780000000
 K   -0.167305908671    0.000000019557    0.000000000000
 S   -2.667305908671    0.000000019557    0.000000000000
 C   -3.838238943712   -1.389494692146    0.000000000000
 H   -4.461558225756   -1.348515024702    0.902787044872
 H   -3.260057065755   -2.322852073271    0.000000000000
 H   -4.461558225756   -1.348515024702   -0.902787044872
 C   -3.838239186225    1.389494526894    0.000000000000
 H   -4.461558461117    1.348514750661   -0.902787044872
 H   -3.260057471169    2.322852008931    0.000000000000
 H   -4.461558461117    1.348514750661    0.902787044872
