19

 H    4.604712162386    1.348520019557   -0.902780000000
 H    3.403212162386    2.322860019557    0.000000000000
 H    4.604712162386    1.348520019557    0.902780000000
 C    3.981402162386    1.389500019557    0.000000000000
 S    2.810462162386    0.000000019557    0.000000000000
 C    3.981402162386   -1.389499980443    0.000000000000
 H    4.604712162386   -1.348519980443    0.902780000000
 H    3.403212162386   -2.322859980443    0.000000000000
 H    4.604712162386   -1.348519980443   -0.902780000000
 K   -0.129257837614    0.000000019557    0.000000000000
 S   -2.729257837614    0.000000019557    0.000000000000
 C   -3.900190872655   -1.389494692146    0.000000000000
 H   -4.523510154700   -1.348515024702    0.902787044872
 H   -3.322008994698   -2.322852073271    0.000000000000
 H   -4.523510154700   -1.348515024702   -0.902787044872
 C   -3.900191115168    1.389494526894    0.000000000000
 H   -4.523510390060    1.348514750661   -0.902787044872
 H   -3.322009400112    2.322852008931    0.000000000000
 H   -4.523510390060    1.348514750661    0.902787044872
