19

 H    4.794952517670    1.348520019557   -0.902780000000
 H    3.593452517670    2.322860019557    0.000000000000
 H    4.794952517670    1.348520019557    0.902780000000
 C    4.171642517670    1.389500019557    0.000000000000
 S    3.000702517670    0.000000019557    0.000000000000
 C    4.171642517670   -1.389499980443    0.000000000000
 H    4.794952517670   -1.348519980443    0.902780000000
 H    3.593452517670   -2.322859980443    0.000000000000
 H    4.794952517670   -1.348519980443   -0.902780000000
 K    0.060982517670    0.000000019557    0.000000000000
 S   -3.039017482330    0.000000019557    0.000000000000
 C   -4.209950517371   -1.389494692146    0.000000000000
 H   -4.833269799416   -1.348515024702    0.902787044872
 H   -3.631768639414   -2.322852073271    0.000000000000
 H   -4.833269799416   -1.348515024702   -0.902787044872
 C   -4.209950759884    1.389494526894    0.000000000000
 H   -4.833270034776    1.348514750661   -0.902787044872
 H   -3.631769044828    2.322852008931    0.000000000000
 H   -4.833270034776    1.348514750661    0.902787044872
