19

 H    4.871048659783    1.348520019557   -0.902780000000
 H    3.669548659783    2.322860019557    0.000000000000
 H    4.871048659783    1.348520019557    0.902780000000
 C    4.247738659783    1.389500019557    0.000000000000
 S    3.076798659783    0.000000019557    0.000000000000
 C    4.247738659783   -1.389499980443    0.000000000000
 H    4.871048659783   -1.348519980443    0.902780000000
 H    3.669548659783   -2.322859980443    0.000000000000
 H    4.871048659783   -1.348519980443   -0.902780000000
 K    0.137078659783    0.000000019557    0.000000000000
 S   -3.162921340217    0.000000019557    0.000000000000
 C   -4.333854375258   -1.389494692146    0.000000000000
 H   -4.957173657302   -1.348515024702    0.902787044872
 H   -3.755672497301   -2.322852073271    0.000000000000
 H   -4.957173657302   -1.348515024702   -0.902787044872
 C   -4.333854617770    1.389494526894    0.000000000000
 H   -4.957173892662    1.348514750661   -0.902787044872
 H   -3.755672902715    2.322852008931    0.000000000000
 H   -4.957173892662    1.348514750661    0.902787044872
