19

 H    4.947144801897    1.348520019557   -0.902780000000
 H    3.745644801897    2.322860019557    0.000000000000
 H    4.947144801897    1.348520019557    0.902780000000
 C    4.323834801897    1.389500019557    0.000000000000
 S    3.152894801897    0.000000019557    0.000000000000
 C    4.323834801897   -1.389499980443    0.000000000000
 H    4.947144801897   -1.348519980443    0.902780000000
 H    3.745644801897   -2.322859980443    0.000000000000
 H    4.947144801897   -1.348519980443   -0.902780000000
 K    0.213174801897    0.000000019557    0.000000000000
 S   -3.286825198103    0.000000019557    0.000000000000
 C   -4.457758233144   -1.389494692146    0.000000000000
 H   -5.081077515188   -1.348515024702    0.902787044872
 H   -3.879576355187   -2.322852073271    0.000000000000
 H   -5.081077515188   -1.348515024702   -0.902787044872
 C   -4.457758475657    1.389494526894    0.000000000000
 H   -5.081077750549    1.348514750661   -0.902787044872
 H   -3.879576760601    2.322852008931    0.000000000000
 H   -5.081077750549    1.348514750661    0.902787044872
