19

 H    5.023240944010    1.348520019557   -0.902780000000
 H    3.821740944010    2.322860019557    0.000000000000
 H    5.023240944010    1.348520019557    0.902780000000
 C    4.399930944010    1.389500019557    0.000000000000
 S    3.228990944010    0.000000019557    0.000000000000
 C    4.399930944010   -1.389499980443    0.000000000000
 H    5.023240944010   -1.348519980443    0.902780000000
 H    3.821740944010   -2.322859980443    0.000000000000
 H    5.023240944010   -1.348519980443   -0.902780000000
 K    0.289270944010    0.000000019557    0.000000000000
 S   -3.410729055990    0.000000019557    0.000000000000
 C   -4.581662091031   -1.389494692146    0.000000000000
 H   -5.204981373075   -1.348515024702    0.902787044872
 H   -4.003480213073   -2.322852073271    0.000000000000
 H   -5.204981373075   -1.348515024702   -0.902787044872
 C   -4.581662333543    1.389494526894    0.000000000000
 H   -5.204981608435    1.348514750661   -0.902787044872
 H   -4.003480618488    2.322852008931    0.000000000000
 H   -5.204981608435    1.348514750661    0.902787044872
