19

 H    5.061289015067    1.348520019557   -0.902780000000
 H    3.859789015067    2.322860019557    0.000000000000
 H    5.061289015067    1.348520019557    0.902780000000
 C    4.437979015067    1.389500019557    0.000000000000
 S    3.267039015067    0.000000019557    0.000000000000
 C    4.437979015067   -1.389499980443    0.000000000000
 H    5.061289015067   -1.348519980443    0.902780000000
 H    3.859789015067   -2.322859980443    0.000000000000
 H    5.061289015067   -1.348519980443   -0.902780000000
 K    0.327319015067    0.000000019557    0.000000000000
 S   -3.472680984933    0.000000019557    0.000000000000
 C   -4.643614019974   -1.389494692146    0.000000000000
 H   -5.266933302018   -1.348515024702    0.902787044872
 H   -4.065432142017   -2.322852073271    0.000000000000
 H   -5.266933302018   -1.348515024702   -0.902787044872
 C   -4.643614262486    1.389494526894    0.000000000000
 H   -5.266933537378    1.348514750661   -0.902787044872
 H   -4.065432547431    2.322852008931    0.000000000000
 H   -5.266933537378    1.348514750661    0.902787044872
