19

 H    5.137385157181    1.348520019557   -0.902780000000
 H    3.935885157181    2.322860019557    0.000000000000
 H    5.137385157181    1.348520019557    0.902780000000
 C    4.514075157181    1.389500019557    0.000000000000
 S    3.343135157181    0.000000019557    0.000000000000
 C    4.514075157181   -1.389499980443    0.000000000000
 H    5.137385157181   -1.348519980443    0.902780000000
 H    3.935885157181   -2.322859980443    0.000000000000
 H    5.137385157181   -1.348519980443   -0.902780000000
 K    0.403415157181    0.000000019557    0.000000000000
 S   -3.596584842819    0.000000019557    0.000000000000
 C   -4.767517877860   -1.389494692146    0.000000000000
 H   -5.390837159905   -1.348515024702    0.902787044872
 H   -4.189335999903   -2.322852073271    0.000000000000
 H   -5.390837159905   -1.348515024702   -0.902787044872
 C   -4.767518120373    1.389494526894    0.000000000000
 H   -5.390837395265    1.348514750661   -0.902787044872
 H   -4.189336405317    2.322852008931    0.000000000000
 H   -5.390837395265    1.348514750661    0.902787044872
