19

 H    5.251529370351    1.348520019557   -0.902780000000
 H    4.050029370351    2.322860019557    0.000000000000
 H    5.251529370351    1.348520019557    0.902780000000
 C    4.628219370351    1.389500019557    0.000000000000
 S    3.457279370351    0.000000019557    0.000000000000
 C    4.628219370351   -1.389499980443    0.000000000000
 H    5.251529370351   -1.348519980443    0.902780000000
 H    4.050029370351   -2.322859980443    0.000000000000
 H    5.251529370351   -1.348519980443   -0.902780000000
 K    0.517559370351    0.000000019557    0.000000000000
 S   -3.782440629649    0.000000019557    0.000000000000
 C   -4.953373664690   -1.389494692146    0.000000000000
 H   -5.576692946734   -1.348515024702    0.902787044872
 H   -4.375191786733   -2.322852073271    0.000000000000
 H   -5.576692946734   -1.348515024702   -0.902787044872
 C   -4.953373907202    1.389494526894    0.000000000000
 H   -5.576693182094    1.348514750661   -0.902787044872
 H   -4.375192192147    2.322852008931    0.000000000000
 H   -5.576693182094    1.348514750661    0.902787044872
