19

 H    5.289577441408    1.348520019557   -0.902780000000
 H    4.088077441408    2.322860019557    0.000000000000
 H    5.289577441408    1.348520019557    0.902780000000
 C    4.666267441408    1.389500019557    0.000000000000
 S    3.495327441408    0.000000019557    0.000000000000
 C    4.666267441408   -1.389499980443    0.000000000000
 H    5.289577441408   -1.348519980443    0.902780000000
 H    4.088077441408   -2.322859980443    0.000000000000
 H    5.289577441408   -1.348519980443   -0.902780000000
 K    0.555607441408    0.000000019557    0.000000000000
 S   -3.844392558592    0.000000019557    0.000000000000
 C   -5.015325593633   -1.389494692146    0.000000000000
 H   -5.638644875677   -1.348515024702    0.902787044872
 H   -4.437143715676   -2.322852073271    0.000000000000
 H   -5.638644875677   -1.348515024702   -0.902787044872
 C   -5.015325836146    1.389494526894    0.000000000000
 H   -5.638645111038    1.348514750661   -0.902787044872
 H   -4.437144121090    2.322852008931    0.000000000000
 H   -5.638645111038    1.348514750661    0.902787044872
