19

 H    5.365673583521    1.348520019557   -0.902780000000
 H    4.164173583521    2.322860019557    0.000000000000
 H    5.365673583521    1.348520019557    0.902780000000
 C    4.742363583521    1.389500019557    0.000000000000
 S    3.571423583521    0.000000019557    0.000000000000
 C    4.742363583521   -1.389499980443    0.000000000000
 H    5.365673583521   -1.348519980443    0.902780000000
 H    4.164173583521   -2.322859980443    0.000000000000
 H    5.365673583521   -1.348519980443   -0.902780000000
 K    0.631703583521    0.000000019557    0.000000000000
 S   -3.968296416479    0.000000019557    0.000000000000
 C   -5.139229451519   -1.389494692146    0.000000000000
 H   -5.762548733564   -1.348515024702    0.902787044872
 H   -4.561047573562   -2.322852073271    0.000000000000
 H   -5.762548733564   -1.348515024702   -0.902787044872
 C   -5.139229694032    1.389494526894    0.000000000000
 H   -5.762548968924    1.348514750661   -0.902787044872
 H   -4.561047978976    2.322852008931    0.000000000000
 H   -5.762548968924    1.348514750661    0.902787044872
