19

 H    5.479817796692    1.348520019557   -0.902780000000
 H    4.278317796692    2.322860019557    0.000000000000
 H    5.479817796692    1.348520019557    0.902780000000
 C    4.856507796692    1.389500019557    0.000000000000
 S    3.685567796692    0.000000019557    0.000000000000
 C    4.856507796692   -1.389499980443    0.000000000000
 H    5.479817796692   -1.348519980443    0.902780000000
 H    4.278317796692   -2.322859980443    0.000000000000
 H    5.479817796692   -1.348519980443   -0.902780000000
 K    0.745847796692    0.000000019557    0.000000000000
 S   -4.154152203308    0.000000019557    0.000000000000
 C   -5.325085238349   -1.389494692146    0.000000000000
 H   -5.948404520393   -1.348515024702    0.902787044872
 H   -4.746903360392   -2.322852073271    0.000000000000
 H   -5.948404520393   -1.348515024702   -0.902787044872
 C   -5.325085480862    1.389494526894    0.000000000000
 H   -5.948404755754    1.348514750661   -0.902787044872
 H   -4.746903765806    2.322852008931    0.000000000000
 H   -5.948404755754    1.348514750661    0.902787044872
