19

 H    5.517865867748    1.348520019557   -0.902780000000
 H    4.316365867748    2.322860019557    0.000000000000
 H    5.517865867748    1.348520019557    0.902780000000
 C    4.894555867748    1.389500019557    0.000000000000
 S    3.723615867748    0.000000019557    0.000000000000
 C    4.894555867748   -1.389499980443    0.000000000000
 H    5.517865867748   -1.348519980443    0.902780000000
 H    4.316365867748   -2.322859980443    0.000000000000
 H    5.517865867748   -1.348519980443   -0.902780000000
 K    0.783895867748    0.000000019557    0.000000000000
 S   -4.216104132252    0.000000019557    0.000000000000
 C   -5.387037167292   -1.389494692146    0.000000000000
 H   -6.010356449337   -1.348515024702    0.902787044872
 H   -4.808855289335   -2.322852073271    0.000000000000
 H   -6.010356449337   -1.348515024702   -0.902787044872
 C   -5.387037409805    1.389494526894    0.000000000000
 H   -6.010356684697    1.348514750661   -0.902787044872
 H   -4.808855694749    2.322852008931    0.000000000000
 H   -6.010356684697    1.348514750661    0.902787044872
