19

 H    5.555913938805    1.348520019557   -0.902780000000
 H    4.354413938805    2.322860019557    0.000000000000
 H    5.555913938805    1.348520019557    0.902780000000
 C    4.932603938805    1.389500019557    0.000000000000
 S    3.761663938805    0.000000019557    0.000000000000
 C    4.932603938805   -1.389499980443    0.000000000000
 H    5.555913938805   -1.348519980443    0.902780000000
 H    4.354413938805   -2.322859980443    0.000000000000
 H    5.555913938805   -1.348519980443   -0.902780000000
 K    0.821943938805    0.000000019557    0.000000000000
 S   -4.278056061195    0.000000019557    0.000000000000
 C   -5.448989096235   -1.389494692146    0.000000000000
 H   -6.072308378280   -1.348515024702    0.902787044872
 H   -4.870807218278   -2.322852073271    0.000000000000
 H   -6.072308378280   -1.348515024702   -0.902787044872
 C   -5.448989338748    1.389494526894    0.000000000000
 H   -6.072308613640    1.348514750661   -0.902787044872
 H   -4.870807623693    2.322852008931    0.000000000000
 H   -6.072308613640    1.348514750661    0.902787044872
