19

 H    5.593962009862    1.348520019557   -0.902780000000
 H    4.392462009862    2.322860019557    0.000000000000
 H    5.593962009862    1.348520019557    0.902780000000
 C    4.970652009862    1.389500019557    0.000000000000
 S    3.799712009862    0.000000019557    0.000000000000
 C    4.970652009862   -1.389499980443    0.000000000000
 H    5.593962009862   -1.348519980443    0.902780000000
 H    4.392462009862   -2.322859980443    0.000000000000
 H    5.593962009862   -1.348519980443   -0.902780000000
 K    0.859992009862    0.000000019557    0.000000000000
 S   -4.340007990138    0.000000019557    0.000000000000
 C   -5.510941025179   -1.389494692146    0.000000000000
 H   -6.134260307223   -1.348515024702    0.902787044872
 H   -4.932759147222   -2.322852073271    0.000000000000
 H   -6.134260307223   -1.348515024702   -0.902787044872
 C   -5.510941267691    1.389494526894    0.000000000000
 H   -6.134260542583    1.348514750661   -0.902787044872
 H   -4.932759552636    2.322852008931    0.000000000000
 H   -6.134260542583    1.348514750661    0.902787044872
