19

 H    5.784202365146    1.348520019557   -0.902780000000
 H    4.582702365146    2.322860019557    0.000000000000
 H    5.784202365146    1.348520019557    0.902780000000
 C    5.160892365146    1.389500019557    0.000000000000
 S    3.989952365146    0.000000019557    0.000000000000
 C    5.160892365146   -1.389499980443    0.000000000000
 H    5.784202365146   -1.348519980443    0.902780000000
 H    4.582702365146   -2.322859980443    0.000000000000
 H    5.784202365146   -1.348519980443   -0.902780000000
 K    1.050232365146    0.000000019557    0.000000000000
 S   -4.649767634854    0.000000019557    0.000000000000
 C   -5.820700669895   -1.389494692146    0.000000000000
 H   -6.444019951939   -1.348515024702    0.902787044872
 H   -5.242518791938   -2.322852073271    0.000000000000
 H   -6.444019951939   -1.348515024702   -0.902787044872
 C   -5.820700912407    1.389494526894    0.000000000000
 H   -6.444020187299    1.348514750661   -0.902787044872
 H   -5.242519197352    2.322852008931    0.000000000000
 H   -6.444020187299    1.348514750661    0.902787044872
