19

 H    5.822250436203    1.348520019557   -0.902780000000
 H    4.620750436203    2.322860019557    0.000000000000
 H    5.822250436203    1.348520019557    0.902780000000
 C    5.198940436203    1.389500019557    0.000000000000
 S    4.028000436203    0.000000019557    0.000000000000
 C    5.198940436203   -1.389499980443    0.000000000000
 H    5.822250436203   -1.348519980443    0.902780000000
 H    4.620750436203   -2.322859980443    0.000000000000
 H    5.822250436203   -1.348519980443   -0.902780000000
 K    1.088280436203    0.000000019557    0.000000000000
 S   -4.711719563797    0.000000019557    0.000000000000
 C   -5.882652598838   -1.389494692146    0.000000000000
 H   -6.505971880882   -1.348515024702    0.902787044872
 H   -5.304470720881   -2.322852073271    0.000000000000
 H   -6.505971880882   -1.348515024702   -0.902787044872
 C   -5.882652841351    1.389494526894    0.000000000000
 H   -6.505972116243    1.348514750661   -0.902787044872
 H   -5.304471126295    2.322852008931    0.000000000000
 H   -6.505972116243    1.348514750661    0.902787044872
