19

 H    5.860298507260    1.348520019557   -0.902780000000
 H    4.658798507260    2.322860019557    0.000000000000
 H    5.860298507260    1.348520019557    0.902780000000
 C    5.236988507260    1.389500019557    0.000000000000
 S    4.066048507260    0.000000019557    0.000000000000
 C    5.236988507260   -1.389499980443    0.000000000000
 H    5.860298507260   -1.348519980443    0.902780000000
 H    4.658798507260   -2.322859980443    0.000000000000
 H    5.860298507260   -1.348519980443   -0.902780000000
 K    1.126328507260    0.000000019557    0.000000000000
 S   -4.773671492740    0.000000019557    0.000000000000
 C   -5.944604527781   -1.389494692146    0.000000000000
 H   -6.567923809826   -1.348515024702    0.902787044872
 H   -5.366422649824   -2.322852073271    0.000000000000
 H   -6.567923809826   -1.348515024702   -0.902787044872
 C   -5.944604770294    1.389494526894    0.000000000000
 H   -6.567924045186    1.348514750661   -0.902787044872
 H   -5.366423055238    2.322852008931    0.000000000000
 H   -6.567924045186    1.348514750661    0.902787044872
