19

 H    5.936394649373    1.348520019557   -0.902780000000
 H    4.734894649373    2.322860019557    0.000000000000
 H    5.936394649373    1.348520019557    0.902780000000
 C    5.313084649373    1.389500019557    0.000000000000
 S    4.142144649373    0.000000019557    0.000000000000
 C    5.313084649373   -1.389499980443    0.000000000000
 H    5.936394649373   -1.348519980443    0.902780000000
 H    4.734894649373   -2.322859980443    0.000000000000
 H    5.936394649373   -1.348519980443   -0.902780000000
 K    1.202424649373    0.000000019557    0.000000000000
 S   -4.897575350627    0.000000019557    0.000000000000
 C   -6.068508385668   -1.389494692146    0.000000000000
 H   -6.691827667712   -1.348515024702    0.902787044872
 H   -5.490326507710   -2.322852073271    0.000000000000
 H   -6.691827667712   -1.348515024702   -0.902787044872
 C   -6.068508628180    1.389494526894    0.000000000000
 H   -6.691827903072    1.348514750661   -0.902787044872
 H   -5.490326913125    2.322852008931    0.000000000000
 H   -6.691827903072    1.348514750661    0.902787044872
