19

 H    6.202731146771    1.348520019557   -0.902780000000
 H    5.001231146771    2.322860019557    0.000000000000
 H    6.202731146771    1.348520019557    0.902780000000
 C    5.579421146771    1.389500019557    0.000000000000
 S    4.408481146771    0.000000019557    0.000000000000
 C    5.579421146771   -1.389499980443    0.000000000000
 H    6.202731146771   -1.348519980443    0.902780000000
 H    5.001231146771   -2.322859980443    0.000000000000
 H    6.202731146771   -1.348519980443   -0.902780000000
 K    1.468761146771    0.000000019557    0.000000000000
 S   -5.331238853229    0.000000019557    0.000000000000
 C   -6.502171888270   -1.389494692146    0.000000000000
 H   -7.125491170314   -1.348515024702    0.902787044872
 H   -5.923990010313   -2.322852073271    0.000000000000
 H   -7.125491170314   -1.348515024702   -0.902787044872
 C   -6.502172130783    1.389494526894    0.000000000000
 H   -7.125491405675    1.348514750661   -0.902787044872
 H   -5.923990415727    2.322852008931    0.000000000000
 H   -7.125491405675    1.348514750661    0.902787044872
