19

 H    6.316875359941    1.348520019557   -0.902780000000
 H    5.115375359941    2.322860019557    0.000000000000
 H    6.316875359941    1.348520019557    0.902780000000
 C    5.693565359941    1.389500019557    0.000000000000
 S    4.522625359941    0.000000019557    0.000000000000
 C    5.693565359941   -1.389499980443    0.000000000000
 H    6.316875359941   -1.348519980443    0.902780000000
 H    5.115375359941   -2.322859980443    0.000000000000
 H    6.316875359941   -1.348519980443   -0.902780000000
 K    1.582905359941    0.000000019557    0.000000000000
 S   -5.517094640059    0.000000019557    0.000000000000
 C   -6.688027675100   -1.389494692146    0.000000000000
 H   -7.311346957144   -1.348515024702    0.902787044872
 H   -6.109845797143   -2.322852073271    0.000000000000
 H   -7.311346957144   -1.348515024702   -0.902787044872
 C   -6.688027917612    1.389494526894    0.000000000000
 H   -7.311347192504    1.348514750661   -0.902787044872
 H   -6.109846202557    2.322852008931    0.000000000000
 H   -7.311347192504    1.348514750661    0.902787044872
