19

 H    6.354923430998    1.348520019557   -0.902780000000
 H    5.153423430998    2.322860019557    0.000000000000
 H    6.354923430998    1.348520019557    0.902780000000
 C    5.731613430998    1.389500019557    0.000000000000
 S    4.560673430998    0.000000019557    0.000000000000
 C    5.731613430998   -1.389499980443    0.000000000000
 H    6.354923430998   -1.348519980443    0.902780000000
 H    5.153423430998   -2.322859980443    0.000000000000
 H    6.354923430998   -1.348519980443   -0.902780000000
 K    1.620953430998    0.000000019557    0.000000000000
 S   -5.579046569002    0.000000019557    0.000000000000
 C   -6.749979604043   -1.389494692146    0.000000000000
 H   -7.373298886087   -1.348515024702    0.902787044872
 H   -6.171797726086   -2.322852073271    0.000000000000
 H   -7.373298886087   -1.348515024702   -0.902787044872
 C   -6.749979846555    1.389494526894    0.000000000000
 H   -7.373299121448    1.348514750661   -0.902787044872
 H   -6.171798131500    2.322852008931    0.000000000000
 H   -7.373299121448    1.348514750661    0.902787044872
