19

 H    6.773452212623    1.348520019557   -0.902780000000
 H    5.571952212623    2.322860019557    0.000000000000
 H    6.773452212623    1.348520019557    0.902780000000
 C    6.150142212623    1.389500019557    0.000000000000
 S    4.979202212623    0.000000019557    0.000000000000
 C    6.150142212623   -1.389499980443    0.000000000000
 H    6.773452212623   -1.348519980443    0.902780000000
 H    5.571952212623   -2.322859980443    0.000000000000
 H    6.773452212623   -1.348519980443   -0.902780000000
 K    2.039482212623    0.000000019557    0.000000000000
 S   -6.260517787377    0.000000019557    0.000000000000
 C   -7.431450822418   -1.389494692146    0.000000000000
 H   -8.054770104463   -1.348515024702    0.902787044872
 H   -6.853268944461   -2.322852073271    0.000000000000
 H   -8.054770104463   -1.348515024702   -0.902787044872
 C   -7.431451064931    1.389494526894    0.000000000000
 H   -8.054770339823    1.348514750661   -0.902787044872
 H   -6.853269349875    2.322852008931    0.000000000000
 H   -8.054770339823    1.348514750661    0.902787044872
