19

 H    6.811500283679    1.348520019557   -0.902780000000
 H    5.610000283679    2.322860019557    0.000000000000
 H    6.811500283679    1.348520019557    0.902780000000
 C    6.188190283679    1.389500019557    0.000000000000
 S    5.017250283679    0.000000019557    0.000000000000
 C    6.188190283679   -1.389499980443    0.000000000000
 H    6.811500283679   -1.348519980443    0.902780000000
 H    5.610000283679   -2.322859980443    0.000000000000
 H    6.811500283679   -1.348519980443   -0.902780000000
 K    2.077530283679    0.000000019557    0.000000000000
 S   -6.322469716321    0.000000019557    0.000000000000
 C   -7.493402751361   -1.389494692146    0.000000000000
 H   -8.116722033406   -1.348515024702    0.902787044872
 H   -6.915220873404   -2.322852073271    0.000000000000
 H   -8.116722033406   -1.348515024702   -0.902787044872
 C   -7.493402993874    1.389494526894    0.000000000000
 H   -8.116722268766    1.348514750661   -0.902787044872
 H   -6.915221278818    2.322852008931    0.000000000000
 H   -8.116722268766    1.348514750661    0.902787044872
