19

 H    6.925644496850    1.348520019557   -0.902780000000
 H    5.724144496850    2.322860019557    0.000000000000
 H    6.925644496850    1.348520019557    0.902780000000
 C    6.302334496850    1.389500019557    0.000000000000
 S    5.131394496850    0.000000019557    0.000000000000
 C    6.302334496850   -1.389499980443    0.000000000000
 H    6.925644496850   -1.348519980443    0.902780000000
 H    5.724144496850   -2.322859980443    0.000000000000
 H    6.925644496850   -1.348519980443   -0.902780000000
 K    2.191674496850    0.000000019557    0.000000000000
 S   -6.508325503150    0.000000019557    0.000000000000
 C   -7.679258538191   -1.389494692146    0.000000000000
 H   -8.302577820235   -1.348515024702    0.902787044872
 H   -7.101076660234   -2.322852073271    0.000000000000
 H   -8.302577820235   -1.348515024702   -0.902787044872
 C   -7.679258780704    1.389494526894    0.000000000000
 H   -8.302578055596    1.348514750661   -0.902787044872
 H   -7.101077065648    2.322852008931    0.000000000000
 H   -8.302578055596    1.348514750661    0.902787044872
