19

 H    6.963692567906    1.348520019557   -0.902780000000
 H    5.762192567906    2.322860019557    0.000000000000
 H    6.963692567906    1.348520019557    0.902780000000
 C    6.340382567906    1.389500019557    0.000000000000
 S    5.169442567906    0.000000019557    0.000000000000
 C    6.340382567906   -1.389499980443    0.000000000000
 H    6.963692567906   -1.348519980443    0.902780000000
 H    5.762192567906   -2.322859980443    0.000000000000
 H    6.963692567906   -1.348519980443   -0.902780000000
 K    2.229722567906    0.000000019557    0.000000000000
 S   -6.570277432094    0.000000019557    0.000000000000
 C   -7.741210467134   -1.389494692146    0.000000000000
 H   -8.364529749179   -1.348515024702    0.902787044872
 H   -7.163028589177   -2.322852073271    0.000000000000
 H   -8.364529749179   -1.348515024702   -0.902787044872
 C   -7.741210709647    1.389494526894    0.000000000000
 H   -8.364529984539    1.348514750661   -0.902787044872
 H   -7.163028994591    2.322852008931    0.000000000000
 H   -8.364529984539    1.348514750661    0.902787044872
