19

 H    7.001740638963    1.348520019557   -0.902780000000
 H    5.800240638963    2.322860019557    0.000000000000
 H    7.001740638963    1.348520019557    0.902780000000
 C    6.378430638963    1.389500019557    0.000000000000
 S    5.207490638963    0.000000019557    0.000000000000
 C    6.378430638963   -1.389499980443    0.000000000000
 H    7.001740638963   -1.348519980443    0.902780000000
 H    5.800240638963   -2.322859980443    0.000000000000
 H    7.001740638963   -1.348519980443   -0.902780000000
 K    2.267770638963    0.000000019557    0.000000000000
 S   -6.632229361037    0.000000019557    0.000000000000
 C   -7.803162396078   -1.389494692146    0.000000000000
 H   -8.426481678122   -1.348515024702    0.902787044872
 H   -7.224980518120   -2.322852073271    0.000000000000
 H   -8.426481678122   -1.348515024702   -0.902787044872
 C   -7.803162638590    1.389494526894    0.000000000000
 H   -8.426481913482    1.348514750661   -0.902787044872
 H   -7.224980923535    2.322852008931    0.000000000000
 H   -8.426481913482    1.348514750661    0.902787044872
