19

 H    7.039788710020    1.348520019557   -0.902780000000
 H    5.838288710020    2.322860019557    0.000000000000
 H    7.039788710020    1.348520019557    0.902780000000
 C    6.416478710020    1.389500019557    0.000000000000
 S    5.245538710020    0.000000019557    0.000000000000
 C    6.416478710020   -1.389499980443    0.000000000000
 H    7.039788710020   -1.348519980443    0.902780000000
 H    5.838288710020   -2.322859980443    0.000000000000
 H    7.039788710020   -1.348519980443   -0.902780000000
 K    2.305818710020    0.000000019557    0.000000000000
 S   -6.694181289980    0.000000019557    0.000000000000
 C   -7.865114325021   -1.389494692146    0.000000000000
 H   -8.488433607065   -1.348515024702    0.902787044872
 H   -7.286932447064   -2.322852073271    0.000000000000
 H   -8.488433607065   -1.348515024702   -0.902787044872
 C   -7.865114567533    1.389494526894    0.000000000000
 H   -8.488433842425    1.348514750661   -0.902787044872
 H   -7.286932852478    2.322852008931    0.000000000000
 H   -8.488433842425    1.348514750661    0.902787044872
