19

 H    7.077836781077    1.348520019557   -0.902780000000
 H    5.876336781077    2.322860019557    0.000000000000
 H    7.077836781077    1.348520019557    0.902780000000
 C    6.454526781077    1.389500019557    0.000000000000
 S    5.283586781077    0.000000019557    0.000000000000
 C    6.454526781077   -1.389499980443    0.000000000000
 H    7.077836781077   -1.348519980443    0.902780000000
 H    5.876336781077   -2.322859980443    0.000000000000
 H    7.077836781077   -1.348519980443   -0.902780000000
 K    2.343866781077    0.000000019557    0.000000000000
 S   -6.756133218923    0.000000019557    0.000000000000
 C   -7.927066253964   -1.389494692146    0.000000000000
 H   -8.550385536008   -1.348515024702    0.902787044872
 H   -7.348884376007   -2.322852073271    0.000000000000
 H   -8.550385536008   -1.348515024702   -0.902787044872
 C   -7.927066496477    1.389494526894    0.000000000000
 H   -8.550385771369    1.348514750661   -0.902787044872
 H   -7.348884781421    2.322852008931    0.000000000000
 H   -8.550385771369    1.348514750661    0.902787044872
