19

 H    7.115884852134    1.348520019557   -0.902780000000
 H    5.914384852134    2.322860019557    0.000000000000
 H    7.115884852134    1.348520019557    0.902780000000
 C    6.492574852134    1.389500019557    0.000000000000
 S    5.321634852134    0.000000019557    0.000000000000
 C    6.492574852134   -1.389499980443    0.000000000000
 H    7.115884852134   -1.348519980443    0.902780000000
 H    5.914384852134   -2.322859980443    0.000000000000
 H    7.115884852134   -1.348519980443   -0.902780000000
 K    2.381914852134    0.000000019557    0.000000000000
 S   -6.818085147866    0.000000019557    0.000000000000
 C   -7.989018182907   -1.389494692146    0.000000000000
 H   -8.612337464952   -1.348515024702    0.902787044872
 H   -7.410836304950   -2.322852073271    0.000000000000
 H   -8.612337464952   -1.348515024702   -0.902787044872
 C   -7.989018425420    1.389494526894    0.000000000000
 H   -8.612337700312    1.348514750661   -0.902787044872
 H   -7.410836710364    2.322852008931    0.000000000000
 H   -8.612337700312    1.348514750661    0.902787044872
