19

 H    7.153932923190    1.348520019557   -0.902780000000
 H    5.952432923190    2.322860019557    0.000000000000
 H    7.153932923190    1.348520019557    0.902780000000
 C    6.530622923190    1.389500019557    0.000000000000
 S    5.359682923190    0.000000019557    0.000000000000
 C    6.530622923190   -1.389499980443    0.000000000000
 H    7.153932923190   -1.348519980443    0.902780000000
 H    5.952432923190   -2.322859980443    0.000000000000
 H    7.153932923190   -1.348519980443   -0.902780000000
 K    2.419962923190    0.000000019557    0.000000000000
 S   -6.880037076810    0.000000019557    0.000000000000
 C   -8.050970111850   -1.389494692146    0.000000000000
 H   -8.674289393895   -1.348515024702    0.902787044872
 H   -7.472788233893   -2.322852073271    0.000000000000
 H   -8.674289393895   -1.348515024702   -0.902787044872
 C   -8.050970354363    1.389494526894    0.000000000000
 H   -8.674289629255    1.348514750661   -0.902787044872
 H   -7.472788639307    2.322852008931    0.000000000000
 H   -8.674289629255    1.348514750661    0.902787044872
