19

 H    7.191980994247    1.348520019557   -0.902780000000
 H    5.990480994247    2.322860019557    0.000000000000
 H    7.191980994247    1.348520019557    0.902780000000
 C    6.568670994247    1.389500019557    0.000000000000
 S    5.397730994247    0.000000019557    0.000000000000
 C    6.568670994247   -1.389499980443    0.000000000000
 H    7.191980994247   -1.348519980443    0.902780000000
 H    5.990480994247   -2.322859980443    0.000000000000
 H    7.191980994247   -1.348519980443   -0.902780000000
 K    2.458010994247    0.000000019557    0.000000000000
 S   -6.941989005753    0.000000019557    0.000000000000
 C   -8.112922040794   -1.389494692146    0.000000000000
 H   -8.736241322838   -1.348515024702    0.902787044872
 H   -7.534740162836   -2.322852073271    0.000000000000
 H   -8.736241322838   -1.348515024702   -0.902787044872
 C   -8.112922283306    1.389494526894    0.000000000000
 H   -8.736241558198    1.348514750661   -0.902787044872
 H   -7.534740568251    2.322852008931    0.000000000000
 H   -8.736241558198    1.348514750661    0.902787044872
