19

 H    7.268077136361    1.348520019557   -0.902780000000
 H    6.066577136361    2.322860019557    0.000000000000
 H    7.268077136361    1.348520019557    0.902780000000
 C    6.644767136361    1.389500019557    0.000000000000
 S    5.473827136361    0.000000019557    0.000000000000
 C    6.644767136361   -1.389499980443    0.000000000000
 H    7.268077136361   -1.348519980443    0.902780000000
 H    6.066577136361   -2.322859980443    0.000000000000
 H    7.268077136361   -1.348519980443   -0.902780000000
 K    2.534107136361    0.000000019557    0.000000000000
 S   -7.065892863639    0.000000019557    0.000000000000
 C   -8.236825898680   -1.389494692146    0.000000000000
 H   -8.860145180724   -1.348515024702    0.902787044872
 H   -7.658644020723   -2.322852073271    0.000000000000
 H   -8.860145180724   -1.348515024702   -0.902787044872
 C   -8.236826141193    1.389494526894    0.000000000000
 H   -8.860145416085    1.348514750661   -0.902787044872
 H   -7.658644426137    2.322852008931    0.000000000000
 H   -8.860145416085    1.348514750661    0.902787044872
