19

 H    7.306125207418    1.348520019557   -0.902780000000
 H    6.104625207418    2.322860019557    0.000000000000
 H    7.306125207418    1.348520019557    0.902780000000
 C    6.682815207418    1.389500019557    0.000000000000
 S    5.511875207418    0.000000019557    0.000000000000
 C    6.682815207418   -1.389499980443    0.000000000000
 H    7.306125207418   -1.348519980443    0.902780000000
 H    6.104625207418   -2.322859980443    0.000000000000
 H    7.306125207418   -1.348519980443   -0.902780000000
 K    2.572155207418    0.000000019557    0.000000000000
 S   -7.127844792582    0.000000019557    0.000000000000
 C   -8.298777827623   -1.389494692146    0.000000000000
 H   -8.922097109668   -1.348515024702    0.902787044872
 H   -7.720595949666   -2.322852073271    0.000000000000
 H   -8.922097109668   -1.348515024702   -0.902787044872
 C   -8.298778070136    1.389494526894    0.000000000000
 H   -8.922097345028    1.348514750661   -0.902787044872
 H   -7.720596355080    2.322852008931    0.000000000000
 H   -8.922097345028    1.348514750661    0.902787044872
