19

 H    7.344173278474    1.348520019557   -0.902780000000
 H    6.142673278474    2.322860019557    0.000000000000
 H    7.344173278474    1.348520019557    0.902780000000
 C    6.720863278474    1.389500019557    0.000000000000
 S    5.549923278474    0.000000019557    0.000000000000
 C    6.720863278474   -1.389499980443    0.000000000000
 H    7.344173278474   -1.348519980443    0.902780000000
 H    6.142673278474   -2.322859980443    0.000000000000
 H    7.344173278474   -1.348519980443   -0.902780000000
 K    2.610203278474    0.000000019557    0.000000000000
 S   -7.189796721526    0.000000019557    0.000000000000
 C   -8.360729756566   -1.389494692146    0.000000000000
 H   -8.984049038611   -1.348515024702    0.902787044872
 H   -7.782547878609   -2.322852073271    0.000000000000
 H   -8.984049038611   -1.348515024702   -0.902787044872
 C   -8.360729999079    1.389494526894    0.000000000000
 H   -8.984049273971    1.348514750661   -0.902787044872
 H   -7.782548284023    2.322852008931    0.000000000000
 H   -8.984049273971    1.348514750661    0.902787044872
