18

 C   -2.585110548998    1.337374476441    0.000000000000
 H   -3.314230548998    2.157514476441    0.000000000000
 H   -2.726920548998    0.720074476441    0.898660000000
 H   -2.726920548998    0.720074476441   -0.898660000000
 C   -1.223970548998    1.936334476441    0.000000000000
 O   -0.758510548998    3.014474476441    0.000000000000
 O   -0.108520548998    0.723914476441    0.000000000000
 H    0.689259451002    1.295274476441    0.000000000000
LI    0.103999451002   -0.693785523559    1.388570000000
LI    0.103999451002   -0.693785523559   -1.388570000000
 O    0.084207477846   -0.561719961363    0.000000000000
 H   -0.713575717756   -1.133080102793    0.000000000000
 C    1.199657352809   -1.774139825456    0.000000000000
 O    0.734196918263   -2.852285239012    0.000000000000
 C    2.560795728109   -1.175166759880    0.000000000000
 H    3.289924955206   -1.995310273110    0.000000000000
 H    2.702609516980   -0.557870034967   -0.898654509585
 H    2.702609516980   -0.557870034967    0.898654509585
