18

 C   -2.605021019075    1.470191619975    0.000000000000
 H   -3.334141019075    2.290331619975    0.000000000000
 H   -2.746831019075    0.852891619975    0.898660000000
 H   -2.746831019075    0.852891619975   -0.898660000000
 C   -1.243881019075    2.069151619975    0.000000000000
 O   -0.778421019075    3.147291619975    0.000000000000
 O   -0.128431019075    0.856731619975    0.000000000000
 H    0.669348980925    1.428091619975    0.000000000000
LI    0.084088980925   -0.560968380025    1.388570000000
LI    0.084088980925   -0.560968380025   -1.388570000000
 O    0.108772706272   -0.725587688092    0.000000000000
 H   -0.689010489331   -1.296947829522    0.000000000000
 C    1.224222581234   -1.938007552185    0.000000000000
 O    0.758762146689   -3.016152965741    0.000000000000
 C    2.585360956534   -1.339034486609    0.000000000000
 H    3.314490183631   -2.159177999839    0.000000000000
 H    2.727174745405   -0.721737761697   -0.898654509585
 H    2.727174745405   -0.721737761697    0.898654509585
