18

 C   -2.611657842434    1.514464001153    0.000000000000
 H   -3.340777842434    2.334604001153    0.000000000000
 H   -2.753467842434    0.897164001153    0.898660000000
 H   -2.753467842434    0.897164001153   -0.898660000000
 C   -1.250517842434    2.113424001153    0.000000000000
 O   -0.785057842434    3.191564001153    0.000000000000
 O   -0.135067842434    0.901004001153    0.000000000000
 H    0.662712157566    1.472364001153    0.000000000000
LI    0.077452157566   -0.516695998847    1.388570000000
LI    0.077452157566   -0.516695998847   -1.388570000000
 O    0.116961115747   -0.780210263669    0.000000000000
 H   -0.680822079856   -1.351570405098    0.000000000000
 C    1.232410990709   -1.992630127761    0.000000000000
 O    0.766950556164   -3.070775541318    0.000000000000
 C    2.593549366009   -1.393657062186    0.000000000000
 H    3.322678593106   -2.213800575416    0.000000000000
 H    2.735363154880   -0.776360337273   -0.898654509585
 H    2.735363154880   -0.776360337273    0.898654509585
