18

 C   -2.618294665794    1.558736382330    0.000000000000
 H   -3.347414665794    2.378876382330    0.000000000000
 H   -2.760104665794    0.941436382330    0.898660000000
 H   -2.760104665794    0.941436382330   -0.898660000000
 C   -1.257154665794    2.157696382330    0.000000000000
 O   -0.791694665794    3.235836382330    0.000000000000
 O   -0.141704665794    0.945276382330    0.000000000000
 H    0.656075334206    1.516636382330    0.000000000000
LI    0.070815334206   -0.472423617670    1.388570000000
LI    0.070815334206   -0.472423617670   -1.388570000000
 O    0.125149525222   -0.834832839245    0.000000000000
 H   -0.672633670381   -1.406192980675    0.000000000000
 C    1.240599400184   -2.047252703338    0.000000000000
 O    0.775138965639   -3.125398116894    0.000000000000
 C    2.601737775484   -1.448279637762    0.000000000000
 H    3.330867002581   -2.268423150992    0.000000000000
 H    2.743551564355   -0.830982912849   -0.898654509585
 H    2.743551564355   -0.830982912849    0.898654509585
