18

 C   -2.624931489153    1.603008763508    0.000000000000
 H   -3.354051489153    2.423148763508    0.000000000000
 H   -2.766741489153    0.985708763508    0.898660000000
 H   -2.766741489153    0.985708763508   -0.898660000000
 C   -1.263791489153    2.201968763508    0.000000000000
 O   -0.798331489153    3.280108763508    0.000000000000
 O   -0.148341489153    0.989548763508    0.000000000000
 H    0.649438510847    1.560908763508    0.000000000000
LI    0.064178510847   -0.428151236492    1.388570000000
LI    0.064178510847   -0.428151236492   -1.388570000000
 O    0.133337934697   -0.889455414821    0.000000000000
 H   -0.664445260906   -1.460815556251    0.000000000000
 C    1.248787809659   -2.101875278914    0.000000000000
 O    0.783327375114   -3.180020692470    0.000000000000
 C    2.609926184960   -1.502902213339    0.000000000000
 H    3.339055412056   -2.323045726569    0.000000000000
 H    2.751739973830   -0.885605488426   -0.898654509585
 H    2.751739973830   -0.885605488426    0.898654509585
