18

 C   -2.631568312512    1.647281144686    0.000000000000
 H   -3.360688312512    2.467421144686    0.000000000000
 H   -2.773378312512    1.029981144686    0.898660000000
 H   -2.773378312512    1.029981144686   -0.898660000000
 C   -1.270428312512    2.246241144686    0.000000000000
 O   -0.804968312512    3.324381144686    0.000000000000
 O   -0.154978312512    1.033821144686    0.000000000000
 H    0.642801687488    1.605181144686    0.000000000000
LI    0.057541687488   -0.383878855314    1.388570000000
LI    0.057541687488   -0.383878855314   -1.388570000000
 O    0.141526344172   -0.944077990398    0.000000000000
 H   -0.656256851431   -1.515438131827    0.000000000000
 C    1.256976219134   -2.156497854490    0.000000000000
 O    0.791515784589   -3.234643268047    0.000000000000
 C    2.618114594435   -1.557524788915    0.000000000000
 H    3.347243821531   -2.377668302145    0.000000000000
 H    2.759928383305   -0.940228064002   -0.898654509585
 H    2.759928383305   -0.940228064002    0.898654509585
