18

 C   -2.651478782589    1.780098288219    0.000000000000
 H   -3.380598782589    2.600238288219    0.000000000000
 H   -2.793288782589    1.162798288219    0.898660000000
 H   -2.793288782589    1.162798288219   -0.898660000000
 C   -1.290338782589    2.379058288219    0.000000000000
 O   -0.824878782589    3.457198288219    0.000000000000
 O   -0.174888782589    1.166638288219    0.000000000000
 H    0.622891217411    1.737998288219    0.000000000000
LI    0.037631217411   -0.251061711781    1.388570000000
LI    0.037631217411   -0.251061711781   -1.388570000000
 O    0.166091572597   -1.107945717127    0.000000000000
 H   -0.631691623005   -1.679305858556    0.000000000000
 C    1.281541447559   -2.320365581219    0.000000000000
 O    0.816081013014   -3.398510994776    0.000000000000
 C    2.642679822860   -1.721392515644    0.000000000000
 H    3.371809049957   -2.541536028874    0.000000000000
 H    2.784493611730   -1.104095790731   -0.898654509585
 H    2.784493611730   -1.104095790731    0.898654509585
