18

 C   -2.664752429307    1.868643050575    0.000000000000
 H   -3.393872429307    2.688783050575    0.000000000000
 H   -2.806562429307    1.251343050575    0.898660000000
 H   -2.806562429307    1.251343050575   -0.898660000000
 C   -1.303612429307    2.467603050575    0.000000000000
 O   -0.838152429307    3.545743050575    0.000000000000
 O   -0.188162429307    1.255183050575    0.000000000000
 H    0.609617570693    1.826543050575    0.000000000000
LI    0.024357570693   -0.162516949425    1.388570000000
LI    0.024357570693   -0.162516949425   -1.388570000000
 O    0.182468391547   -1.217190868280    0.000000000000
 H   -0.615314804055   -1.788551009709    0.000000000000
 C    1.297918266510   -2.429610732372    0.000000000000
 O    0.832457831964   -3.507756145929    0.000000000000
 C    2.659056641810   -1.830637666797    0.000000000000
 H    3.388185868907   -2.650781180027    0.000000000000
 H    2.800870430681   -1.213340941884   -0.898654509585
 H    2.800870430681   -1.213340941884    0.898654509585
