18

 C   -2.678026076026    1.957187812931    0.000000000000
 H   -3.407146076026    2.777327812931    0.000000000000
 H   -2.819836076026    1.339887812931    0.898660000000
 H   -2.819836076026    1.339887812931   -0.898660000000
 C   -1.316886076026    2.556147812931    0.000000000000
 O   -0.851426076026    3.634287812931    0.000000000000
 O   -0.201436076026    1.343727812931    0.000000000000
 H    0.596343923974    1.915087812931    0.000000000000
LI    0.011083923974   -0.073972187069    1.388570000000
LI    0.011083923974   -0.073972187069   -1.388570000000
 O    0.198845210497   -1.326436019432    0.000000000000
 H   -0.598937985105   -1.897796160862    0.000000000000
 C    1.314295085460   -2.538855883525    0.000000000000
 O    0.848834650914   -3.617001297081    0.000000000000
 C    2.675433460760   -1.939882817949    0.000000000000
 H    3.404562687857   -2.760026331180    0.000000000000
 H    2.817247249631   -1.322586093037   -0.898654509585
 H    2.817247249631   -1.322586093037    0.898654509585
