18

 C   -2.704573369462    2.134277337642    0.000000000000
 H   -3.433693369462    2.954417337642    0.000000000000
 H   -2.846383369462    1.516977337642    0.898660000000
 H   -2.846383369462    1.516977337642   -0.898660000000
 C   -1.343433369462    2.733237337642    0.000000000000
 O   -0.877973369462    3.811377337642    0.000000000000
 O   -0.227983369462    1.520817337642    0.000000000000
 H    0.569796630538    2.092177337642    0.000000000000
LI   -0.015463369462    0.103117337642    1.388570000000
LI   -0.015463369462    0.103117337642   -1.388570000000
 O    0.231598848398   -1.544926321738    0.000000000000
 H   -0.566184347205   -2.116286463167    0.000000000000
 C    1.347048723360   -2.757346185830    0.000000000000
 O    0.881588288815   -3.835491599387    0.000000000000
 C    2.708187098660   -2.158373120255    0.000000000000
 H    3.437316325757   -2.978516633485    0.000000000000
 H    2.850000887531   -1.541076395342   -0.898654509585
 H    2.850000887531   -1.541076395342    0.898654509585
