18

 C   -2.711210192821    2.178549718820    0.000000000000
 H   -3.440330192821    2.998689718820    0.000000000000
 H   -2.853020192821    1.561249718820    0.898660000000
 H   -2.853020192821    1.561249718820   -0.898660000000
 C   -1.350070192821    2.777509718820    0.000000000000
 O   -0.884610192821    3.855649718820    0.000000000000
 O   -0.234620192821    1.565089718820    0.000000000000
 H    0.563159807179    2.136449718820    0.000000000000
LI   -0.022100192821    0.147389718820    1.388570000000
LI   -0.022100192821    0.147389718820   -1.388570000000
 O    0.239787257873   -1.599548897314    0.000000000000
 H   -0.557995937730   -2.170909038744    0.000000000000
 C    1.355237132835   -2.811968761407    0.000000000000
 O    0.889776698290   -3.890114174963    0.000000000000
 C    2.716375508135   -2.212995695831    0.000000000000
 H    3.445504735232   -3.033139209061    0.000000000000
 H    2.858189297006   -1.595698970918   -0.898654509585
 H    2.858189297006   -1.595698970918    0.898654509585
