18

 C   -2.731120662899    2.311366862353    0.000000000000
 H   -3.460240662899    3.131506862353    0.000000000000
 H   -2.872930662899    1.694066862353    0.898660000000
 H   -2.872930662899    1.694066862353   -0.898660000000
 C   -1.369980662899    2.910326862353    0.000000000000
 O   -0.904520662899    3.988466862353    0.000000000000
 O   -0.254530662899    1.697906862353    0.000000000000
 H    0.543249337101    2.269266862353    0.000000000000
LI   -0.042010662899    0.280206862353    1.388570000000
LI   -0.042010662899    0.280206862353   -1.388570000000
 O    0.264352486298   -1.763416624043    0.000000000000
 H   -0.533430709305   -2.334776765473    0.000000000000
 C    1.379802361260   -2.975836488136    0.000000000000
 O    0.914341926715   -4.053981901692    0.000000000000
 C    2.740940736561   -2.376863422560    0.000000000000
 H    3.470069963657   -3.197006935790    0.000000000000
 H    2.882754525431   -1.759566697648   -0.898654509585
 H    2.882754525431   -1.759566697648    0.898654509585
