18

 C   -2.744394309617    2.399911624709    0.000000000000
 H   -3.473514309617    3.220051624709    0.000000000000
 H   -2.886204309617    1.782611624709    0.898660000000
 H   -2.886204309617    1.782611624709   -0.898660000000
 C   -1.383254309617    2.998871624709    0.000000000000
 O   -0.917794309617    4.077011624709    0.000000000000
 O   -0.267804309617    1.786451624709    0.000000000000
 H    0.529975690383    2.357811624709    0.000000000000
LI   -0.055284309617    0.368751624709    1.388570000000
LI   -0.055284309617    0.368751624709   -1.388570000000
 O    0.280729305248   -1.872661775196    0.000000000000
 H   -0.517053890355   -2.444021916626    0.000000000000
 C    1.396179180210   -3.085081639289    0.000000000000
 O    0.930718745665   -4.163227052845    0.000000000000
 C    2.757317555511   -2.486108573713    0.000000000000
 H    3.486446782607   -3.306252086943    0.000000000000
 H    2.899131344381   -1.868811848800   -0.898654509585
 H    2.899131344381   -1.868811848800    0.898654509585
