18

 C   -2.764304779694    2.532728768242    0.000000000000
 H   -3.493424779694    3.352868768242    0.000000000000
 H   -2.906114779694    1.915428768242    0.898660000000
 H   -2.906114779694    1.915428768242   -0.898660000000
 C   -1.403164779694    3.131688768242    0.000000000000
 O   -0.937704779694    4.209828768242    0.000000000000
 O   -0.287714779694    1.919268768242    0.000000000000
 H    0.510065220306    2.490628768242    0.000000000000
LI   -0.075194779694    0.501568768242    1.388570000000
LI   -0.075194779694    0.501568768242   -1.388570000000
 O    0.305294533673   -2.036529501925    0.000000000000
 H   -0.492488661929   -2.607889643355    0.000000000000
 C    1.420744408636   -3.248949366018    0.000000000000
 O    0.955283974090   -4.327094779574    0.000000000000
 C    2.781882783936   -2.649976300442    0.000000000000
 H    3.511012011033   -3.470119813672    0.000000000000
 H    2.923696572807   -2.032679575529   -0.898654509585
 H    2.923696572807   -2.032679575529    0.898654509585
