18

 C   -2.777578426412    2.621273530598    0.000000000000
 H   -3.506698426412    3.441413530598    0.000000000000
 H   -2.919388426412    2.003973530598    0.898660000000
 H   -2.919388426412    2.003973530598   -0.898660000000
 C   -1.416438426412    3.220233530598    0.000000000000
 O   -0.950978426412    4.298373530598    0.000000000000
 O   -0.300988426412    2.007813530598    0.000000000000
 H    0.496791573588    2.579173530598    0.000000000000
LI   -0.088468426412    0.590113530598    1.388570000000
LI   -0.088468426412    0.590113530598   -1.388570000000
 O    0.321671352623   -2.145774653078    0.000000000000
 H   -0.476111842979   -2.717134794507    0.000000000000
 C    1.437121227586   -3.358194517170    0.000000000000
 O    0.971660793040   -4.436339930727    0.000000000000
 C    2.798259602886   -2.759221451595    0.000000000000
 H    3.527388829983   -3.579364964825    0.000000000000
 H    2.940073391757   -2.141924726682   -0.898654509585
 H    2.940073391757   -2.141924726682    0.898654509585
