18

 C   -2.790852073131    2.709818292954    0.000000000000
 H   -3.519972073131    3.529958292954    0.000000000000
 H   -2.932662073131    2.092518292954    0.898660000000
 H   -2.932662073131    2.092518292954   -0.898660000000
 C   -1.429712073131    3.308778292954    0.000000000000
 O   -0.964252073131    4.386918292954    0.000000000000
 O   -0.314262073131    2.096358292954    0.000000000000
 H    0.483517926869    2.667718292954    0.000000000000
LI   -0.101742073131    0.678658292954    1.388570000000
LI   -0.101742073131    0.678658292954   -1.388570000000
 O    0.338048171573   -2.255019804231    0.000000000000
 H   -0.459735024029   -2.826379945660    0.000000000000
 C    1.453498046536   -3.467439668323    0.000000000000
 O    0.988037611990   -4.545585081880    0.000000000000
 C    2.814636421836   -2.868466602748    0.000000000000
 H    3.543765648933   -3.688610115978    0.000000000000
 H    2.956450210707   -2.251169877835   -0.898654509585
 H    2.956450210707   -2.251169877835    0.898654509585
