18

 C   -2.804125719849    2.798363055309    0.000000000000
 H   -3.533245719849    3.618503055309    0.000000000000
 H   -2.945935719849    2.181063055309    0.898660000000
 H   -2.945935719849    2.181063055309   -0.898660000000
 C   -1.442985719849    3.397323055309    0.000000000000
 O   -0.977525719849    4.475463055309    0.000000000000
 O   -0.327535719849    2.184903055309    0.000000000000
 H    0.470244280151    2.756263055309    0.000000000000
LI   -0.115015719849    0.767203055309    1.388570000000
LI   -0.115015719849    0.767203055309   -1.388570000000
 O    0.354424990524   -2.364264955383    0.000000000000
 H   -0.443358205079   -2.935625096813    0.000000000000
 C    1.469874865486   -3.576684819476    0.000000000000
 O    1.004414430941   -4.654830233032    0.000000000000
 C    2.831013240786   -2.977711753900    0.000000000000
 H    3.560142467883   -3.797855267131    0.000000000000
 H    2.972827029657   -2.360415028988   -0.898654509585
 H    2.972827029657   -2.360415028988    0.898654509585
