18

 C   -2.817399366567    2.886907817665    0.000000000000
 H   -3.546519366567    3.707047817665    0.000000000000
 H   -2.959209366567    2.269607817665    0.898660000000
 H   -2.959209366567    2.269607817665   -0.898660000000
 C   -1.456259366567    3.485867817665    0.000000000000
 O   -0.990799366567    4.564007817665    0.000000000000
 O   -0.340809366567    2.273447817665    0.000000000000
 H    0.456970633433    2.844807817665    0.000000000000
LI   -0.128289366567    0.855747817665    1.388570000000
LI   -0.128289366567    0.855747817665   -1.388570000000
 O    0.370801809474   -2.473510106536    0.000000000000
 H   -0.426981386129   -3.044870247966    0.000000000000
 C    1.486251684436   -3.685929970629    0.000000000000
 O    1.020791249891   -4.764075384185    0.000000000000
 C    2.847390059736   -3.086956905053    0.000000000000
 H    3.576519286833   -3.907100418283    0.000000000000
 H    2.989203848607   -2.469660180140   -0.898654509585
 H    2.989203848607   -2.469660180140    0.898654509585
