18

 C   -2.830673013285    2.975452580021    0.000000000000
 H   -3.559793013285    3.795592580021    0.000000000000
 H   -2.972483013285    2.358152580021    0.898660000000
 H   -2.972483013285    2.358152580021   -0.898660000000
 C   -1.469533013285    3.574412580021    0.000000000000
 O   -1.004073013285    4.652552580021    0.000000000000
 O   -0.354083013285    2.361992580021    0.000000000000
 H    0.443696986715    2.933352580021    0.000000000000
LI   -0.141563013285    0.944292580021    1.388570000000
LI   -0.141563013285    0.944292580021   -1.388570000000
 O    0.387178628424   -2.582755257689    0.000000000000
 H   -0.410604567179   -3.154115399118    0.000000000000
 C    1.502628503386   -3.795175121781    0.000000000000
 O    1.037168068841   -4.873320535338    0.000000000000
 C    2.863766878687   -3.196202056206    0.000000000000
 H    3.592896105783   -4.016345569436    0.000000000000
 H    3.005580667557   -2.578905331293   -0.898654509585
 H    3.005580667557   -2.578905331293    0.898654509585
