18

 C   -2.843946660003    3.063997342376    0.000000000000
 H   -3.573066660003    3.884137342376    0.000000000000
 H   -2.985756660003    2.446697342376    0.898660000000
 H   -2.985756660003    2.446697342376   -0.898660000000
 C   -1.482806660003    3.662957342376    0.000000000000
 O   -1.017346660003    4.741097342376    0.000000000000
 O   -0.367356660003    2.450537342376    0.000000000000
 H    0.430423339997    3.021897342376    0.000000000000
LI   -0.154836660003    1.032837342376    1.388570000000
LI   -0.154836660003    1.032837342376   -1.388570000000
 O    0.403555447374   -2.692000408842    0.000000000000
 H   -0.394227748229   -3.263360550271    0.000000000000
 C    1.519005322336   -3.904420272934    0.000000000000
 O    1.053544887791   -4.982565686490    0.000000000000
 C    2.880143697637   -3.305447207359    0.000000000000
 H    3.609272924733   -4.125590720589    0.000000000000
 H    3.021957486507   -2.688150482446   -0.898654509585
 H    3.021957486507   -2.688150482446    0.898654509585
