18

 C   -2.850583483363    3.108269723554    0.000000000000
 H   -3.579703483363    3.928409723554    0.000000000000
 H   -2.992393483363    2.490969723554    0.898660000000
 H   -2.992393483363    2.490969723554   -0.898660000000
 C   -1.489443483363    3.707229723554    0.000000000000
 O   -1.023983483363    4.785369723554    0.000000000000
 O   -0.373993483363    2.494809723554    0.000000000000
 H    0.423786516637    3.066169723554    0.000000000000
LI   -0.161473483363    1.077109723554    1.388570000000
LI   -0.161473483363    1.077109723554   -1.388570000000
 O    0.411743856849   -2.746622984418    0.000000000000
 H   -0.386039338753   -3.317983125847    0.000000000000
 C    1.527193731811   -3.959042848510    0.000000000000
 O    1.061733297266   -5.037188262067    0.000000000000
 C    2.888332107112   -3.360069782935    0.000000000000
 H    3.617461334209   -4.180213296165    0.000000000000
 H    3.030145895982   -2.742773058022   -0.898654509585
 H    3.030145895982   -2.742773058022    0.898654509585
