18

 C   -2.863857130081    3.196814485910    0.000000000000
 H   -3.592977130081    4.016954485910    0.000000000000
 H   -3.005667130081    2.579514485910    0.898660000000
 H   -3.005667130081    2.579514485910   -0.898660000000
 C   -1.502717130081    3.795774485910    0.000000000000
 O   -1.037257130081    4.873914485910    0.000000000000
 O   -0.387267130081    2.583354485910    0.000000000000
 H    0.410512869919    3.154714485910    0.000000000000
LI   -0.174747130081    1.165654485910    1.388570000000
LI   -0.174747130081    1.165654485910   -1.388570000000
 O    0.428120675799   -2.855868135571    0.000000000000
 H   -0.369662519803   -3.427228277000    0.000000000000
 C    1.543570550762   -4.068287999663    0.000000000000
 O    1.078110116216   -5.146433413220    0.000000000000
 C    2.904708926062   -3.469314934088    0.000000000000
 H    3.633838153159   -4.289458447318    0.000000000000
 H    3.046522714933   -2.852018209175   -0.898654509585
 H    3.046522714933   -2.852018209175    0.898654509585
