18

 C   -2.890404423517    3.373904010621    0.000000000000
 H   -3.619524423517    4.194044010621    0.000000000000
 H   -3.032214423517    2.756604010621    0.898660000000
 H   -3.032214423517    2.756604010621   -0.898660000000
 C   -1.529264423517    3.972864010621    0.000000000000
 O   -1.063804423517    5.051004010621    0.000000000000
 O   -0.413814423517    2.760444010621    0.000000000000
 H    0.383965576483    3.331804010621    0.000000000000
LI   -0.201294423517    1.342744010621    1.388570000000
LI   -0.201294423517    1.342744010621   -1.388570000000
 O    0.460874313699   -3.074358437876    0.000000000000
 H   -0.336908881903   -3.645718579306    0.000000000000
 C    1.576324188662   -4.286778301969    0.000000000000
 O    1.110863754116   -5.364923715525    0.000000000000
 C    2.937462563962   -3.687805236393    0.000000000000
 H    3.666591791059   -4.507948749623    0.000000000000
 H    3.079276352833   -3.070508511480   -0.898654509585
 H    3.079276352833   -3.070508511480    0.898654509585
