18

 C   -2.903678070235    3.462448772977    0.000000000000
 H   -3.632798070235    4.282588772977    0.000000000000
 H   -3.045488070235    2.845148772977    0.898660000000
 H   -3.045488070235    2.845148772977   -0.898660000000
 C   -1.542538070235    4.061408772977    0.000000000000
 O   -1.077078070235    5.139548772977    0.000000000000
 O   -0.427088070235    2.848988772977    0.000000000000
 H    0.370691929765    3.420348772977    0.000000000000
LI   -0.214568070235    1.431288772977    1.388570000000
LI   -0.214568070235    1.431288772977   -1.388570000000
 O    0.477251132649   -3.183603589029    0.000000000000
 H   -0.320532062953   -3.754963730458    0.000000000000
 C    1.592701007612   -4.396023453121    0.000000000000
 O    1.127240573067   -5.474168866678    0.000000000000
 C    2.953839382912   -3.797050387546    0.000000000000
 H    3.682968610009   -4.617193900776    0.000000000000
 H    3.095653171783   -3.179753662633   -0.898654509585
 H    3.095653171783   -3.179753662633    0.898654509585
