18

 C   -2.910314893595    3.506721154154    0.000000000000
 H   -3.639434893595    4.326861154154    0.000000000000
 H   -3.052124893595    2.889421154154    0.898660000000
 H   -3.052124893595    2.889421154154   -0.898660000000
 C   -1.549174893595    4.105681154154    0.000000000000
 O   -1.083714893595    5.183821154154    0.000000000000
 O   -0.433724893595    2.893261154154    0.000000000000
 H    0.364055106405    3.464621154154    0.000000000000
LI   -0.221204893595    1.475561154154    1.388570000000
LI   -0.221204893595    1.475561154154   -1.388570000000
 O    0.485439542125   -3.238226164605    0.000000000000
 H   -0.312343653478   -3.809586306035    0.000000000000
 C    1.600889417087   -4.450646028698    0.000000000000
 O    1.135428982542   -5.528791442254    0.000000000000
 C    2.962027792387   -3.851672963122    0.000000000000
 H    3.691157019484   -4.671816476352    0.000000000000
 H    3.103841581258   -3.234376238210   -0.898654509585
 H    3.103841581258   -3.234376238210    0.898654509585
