18

 C   -2.923588540313    3.595265916510    0.000000000000
 H   -3.652708540313    4.415405916510    0.000000000000
 H   -3.065398540313    2.977965916510    0.898660000000
 H   -3.065398540313    2.977965916510   -0.898660000000
 C   -1.562448540313    4.194225916510    0.000000000000
 O   -1.096988540313    5.272365916510    0.000000000000
 O   -0.446998540313    2.981805916510    0.000000000000
 H    0.350781459687    3.553165916510    0.000000000000
LI   -0.234478540313    1.564105916510    1.388570000000
LI   -0.234478540313    1.564105916510   -1.388570000000
 O    0.501816361075   -3.347471315758    0.000000000000
 H   -0.295966834528   -3.918831457188    0.000000000000
 C    1.617266236037   -4.559891179850    0.000000000000
 O    1.151805801492   -5.638036593407    0.000000000000
 C    2.978404611338   -3.960918114275    0.000000000000
 H    3.707533838434   -4.781061627505    0.000000000000
 H    3.120218400208   -3.343621389362   -0.898654509585
 H    3.120218400208   -3.343621389362    0.898654509585
