18

 C   -2.930225363672    3.639538297688    0.000000000000
 H   -3.659345363672    4.459678297688    0.000000000000
 H   -3.072035363672    3.022238297688    0.898660000000
 H   -3.072035363672    3.022238297688   -0.898660000000
 C   -1.569085363672    4.238498297688    0.000000000000
 O   -1.103625363672    5.316638297688    0.000000000000
 O   -0.453635363672    3.026078297688    0.000000000000
 H    0.344144636328    3.597438297688    0.000000000000
LI   -0.241115363672    1.608378297688    1.388570000000
LI   -0.241115363672    1.608378297688   -1.388570000000
 O    0.510004770550   -3.402093891334    0.000000000000
 H   -0.287778425053   -3.973454032764    0.000000000000
 C    1.625454645512   -4.614513755427    0.000000000000
 O    1.159994210967   -5.692659168983    0.000000000000
 C    2.986593020813   -4.015540689851    0.000000000000
 H    3.715722247909   -4.835684203082    0.000000000000
 H    3.128406809683   -3.398243964939   -0.898654509585
 H    3.128406809683   -3.398243964939    0.898654509585
