18

 C   -2.950135833749    3.772355441221    0.000000000000
 H   -3.679255833749    4.592495441221    0.000000000000
 H   -3.091945833749    3.155055441221    0.898660000000
 H   -3.091945833749    3.155055441221   -0.898660000000
 C   -1.588995833749    4.371315441221    0.000000000000
 O   -1.123535833749    5.449455441221    0.000000000000
 O   -0.473545833749    3.158895441221    0.000000000000
 H    0.324234166251    3.730255441221    0.000000000000
LI   -0.261025833749    1.741195441221    1.388570000000
LI   -0.261025833749    1.741195441221   -1.388570000000
 O    0.534569998975   -3.565961618063    0.000000000000
 H   -0.263213196627   -4.137321759493    0.000000000000
 C    1.650019873937   -4.778381482156    0.000000000000
 O    1.184559439392   -5.856526895712    0.000000000000
 C    3.011158249238   -4.179408416581    0.000000000000
 H    3.740287476335   -4.999551929811    0.000000000000
 H    3.152972038108   -3.562111691668   -0.898654509585
 H    3.152972038108   -3.562111691668    0.898654509585
