18

 C   -2.956772657108    3.816627822399    0.000000000000
 H   -3.685892657108    4.636767822399    0.000000000000
 H   -3.098582657108    3.199327822399    0.898660000000
 H   -3.098582657108    3.199327822399   -0.898660000000
 C   -1.595632657108    4.415587822399    0.000000000000
 O   -1.130172657108    5.493727822399    0.000000000000
 O   -0.480182657108    3.203167822399    0.000000000000
 H    0.317597342892    3.774527822399    0.000000000000
LI   -0.267662657108    1.785467822399    1.388570000000
LI   -0.267662657108    1.785467822399   -1.388570000000
 O    0.542758408450   -3.620584193640    0.000000000000
 H   -0.255024787152   -4.191944335069    0.000000000000
 C    1.658208283413   -4.833004057732    0.000000000000
 O    1.192747848867   -5.911149471289    0.000000000000
 C    3.019346658713   -4.234030992157    0.000000000000
 H    3.748475885810   -5.054174505387    0.000000000000
 H    3.161160447583   -3.616734267244   -0.898654509585
 H    3.161160447583   -3.616734267244    0.898654509585
