18

 C   -2.970046303827    3.905172584755    0.000000000000
 H   -3.699166303827    4.725312584755    0.000000000000
 H   -3.111856303827    3.287872584755    0.898660000000
 H   -3.111856303827    3.287872584755   -0.898660000000
 C   -1.608906303827    4.504132584755    0.000000000000
 O   -1.143446303827    5.582272584755    0.000000000000
 O   -0.493456303827    3.291712584755    0.000000000000
 H    0.304323696173    3.863072584755    0.000000000000
LI   -0.280936303827    1.874012584755    1.388570000000
LI   -0.280936303827    1.874012584755   -1.388570000000
 O    0.559135227400   -3.729829344793    0.000000000000
 H   -0.238647968202   -4.301189486222    0.000000000000
 C    1.674585102363   -4.942249208885    0.000000000000
 O    1.209124667817   -6.020394622442    0.000000000000
 C    3.035723477663   -4.343276143310    0.000000000000
 H    3.764852704760   -5.163419656540    0.000000000000
 H    3.177537266534   -3.725979418397   -0.898654509585
 H    3.177537266534   -3.725979418397    0.898654509585
