18

 C   -2.989956773904    4.037989728288    0.000000000000
 H   -3.719076773904    4.858129728288    0.000000000000
 H   -3.131766773904    3.420689728288    0.898660000000
 H   -3.131766773904    3.420689728288   -0.898660000000
 C   -1.628816773904    4.636949728288    0.000000000000
 O   -1.163356773904    5.715089728288    0.000000000000
 O   -0.513366773904    3.424529728288    0.000000000000
 H    0.284413226096    3.995889728288    0.000000000000
LI   -0.300846773904    2.006829728288    1.388570000000
LI   -0.300846773904    2.006829728288   -1.388570000000
 O    0.583700455825   -3.893697071522    0.000000000000
 H   -0.214082739777   -4.465057212951    0.000000000000
 C    1.699150330788   -5.106116935614    0.000000000000
 O    1.233689896242   -6.184262349171    0.000000000000
 C    3.060288706088   -4.507143870039    0.000000000000
 H    3.789417933185   -5.327287383269    0.000000000000
 H    3.202102494959   -3.889847145126   -0.898654509585
 H    3.202102494959   -3.889847145126    0.898654509585
