18

 C   -2.996593597263    4.082262109466    0.000000000000
 H   -3.725713597263    4.902402109466    0.000000000000
 H   -3.138403597263    3.464962109466    0.898660000000
 H   -3.138403597263    3.464962109466   -0.898660000000
 C   -1.635453597263    4.681222109466    0.000000000000
 O   -1.169993597263    5.759362109466    0.000000000000
 O   -0.520003597263    3.468802109466    0.000000000000
 H    0.277776402737    4.040162109466    0.000000000000
LI   -0.307483597263    2.051102109466    1.388570000000
LI   -0.307483597263    2.051102109466   -1.388570000000
 O    0.591888865300   -3.948319647098    0.000000000000
 H   -0.205894330302   -4.519679788528    0.000000000000
 C    1.707338740263   -5.160739511191    0.000000000000
 O    1.241878305717   -6.238884924747    0.000000000000
 C    3.068477115563   -4.561766445615    0.000000000000
 H    3.797606342660   -5.381909958845    0.000000000000
 H    3.210290904434   -3.944469720702   -0.898654509585
 H    3.210290904434   -3.944469720702    0.898654509585
