18

 C   -3.003230420622    4.126534490644    0.000000000000
 H   -3.732350420622    4.946674490644    0.000000000000
 H   -3.145040420622    3.509234490644    0.898660000000
 H   -3.145040420622    3.509234490644   -0.898660000000
 C   -1.642090420622    4.725494490644    0.000000000000
 O   -1.176630420622    5.803634490644    0.000000000000
 O   -0.526640420622    3.513074490644    0.000000000000
 H    0.271139579378    4.084434490644    0.000000000000
LI   -0.314120420622    2.095374490644    1.388570000000
LI   -0.314120420622    2.095374490644   -1.388570000000
 O    0.600077274775   -4.002942222674    0.000000000000
 H   -0.197705920827   -4.574302364104    0.000000000000
 C    1.715527149738   -5.215362086767    0.000000000000
 O    1.250066715193   -6.293507500323    0.000000000000
 C    3.076665525038   -4.616389021192    0.000000000000
 H    3.805794752135   -5.436532534422    0.000000000000
 H    3.218479313909   -3.999092296279   -0.898654509585
 H    3.218479313909   -3.999092296279    0.898654509585
