18

 C   -3.009867243981    4.170806871822    0.000000000000
 H   -3.738987243981    4.990946871822    0.000000000000
 H   -3.151677243981    3.553506871822    0.898660000000
 H   -3.151677243981    3.553506871822   -0.898660000000
 C   -1.648727243981    4.769766871822    0.000000000000
 O   -1.183267243981    5.847906871822    0.000000000000
 O   -0.533277243981    3.557346871822    0.000000000000
 H    0.264502756019    4.128706871822    0.000000000000
LI   -0.320757243981    2.139646871822    1.388570000000
LI   -0.320757243981    2.139646871822   -1.388570000000
 O    0.608265684251   -4.057564798251    0.000000000000
 H   -0.189517511352   -4.628924939680    0.000000000000
 C    1.723715559213   -5.269984662343    0.000000000000
 O    1.258255124668   -6.348130075900    0.000000000000
 C    3.084853934513   -4.671011596768    0.000000000000
 H    3.813983161610   -5.491155109998    0.000000000000
 H    3.226667723384   -4.053714871855   -0.898654509585
 H    3.226667723384   -4.053714871855    0.898654509585
