18

 C   -3.023140890700    4.259351634177    0.000000000000
 H   -3.752260890700    5.079491634177    0.000000000000
 H   -3.164950890700    3.642051634177    0.898660000000
 H   -3.164950890700    3.642051634177   -0.898660000000
 C   -1.662000890700    4.858311634177    0.000000000000
 O   -1.196540890700    5.936451634177    0.000000000000
 O   -0.546550890700    3.645891634177    0.000000000000
 H    0.251229109300    4.217251634177    0.000000000000
LI   -0.334030890700    2.228191634177    1.388570000000
LI   -0.334030890700    2.228191634177   -1.388570000000
 O    0.624642503201   -4.166809949403    0.000000000000
 H   -0.173140692402   -4.738170090833    0.000000000000
 C    1.740092378163   -5.379229813496    0.000000000000
 O    1.274631943618   -6.457375227052    0.000000000000
 C    3.101230753464   -4.780256747921    0.000000000000
 H    3.830359980560   -5.600400261151    0.000000000000
 H    3.243044542334   -4.162960023008   -0.898654509585
 H    3.243044542334   -4.162960023008    0.898654509585
