18

 C   -3.029777714059    4.303624015355    0.000000000000
 H   -3.758897714059    5.123764015355    0.000000000000
 H   -3.171587714059    3.686324015355    0.898660000000
 H   -3.171587714059    3.686324015355   -0.898660000000
 C   -1.668637714059    4.902584015355    0.000000000000
 O   -1.203177714059    5.980724015355    0.000000000000
 O   -0.553187714059    3.690164015355    0.000000000000
 H    0.244592285941    4.261524015355    0.000000000000
LI   -0.340667714059    2.272464015355    1.388570000000
LI   -0.340667714059    2.272464015355   -1.388570000000
 O    0.632830912676   -4.221432524980    0.000000000000
 H   -0.164952282927   -4.792792666409    0.000000000000
 C    1.748280787638   -5.433852389072    0.000000000000
 O    1.282820353093   -6.511997802629    0.000000000000
 C    3.109419162939   -4.834879323497    0.000000000000
 H    3.838548390035   -5.655022836727    0.000000000000
 H    3.251232951809   -4.217582598584   -0.898654509585
 H    3.251232951809   -4.217582598584    0.898654509585
