18

 C   -3.036414537418    4.347896396533    0.000000000000
 H   -3.765534537418    5.168036396533    0.000000000000
 H   -3.178224537418    3.730596396533    0.898660000000
 H   -3.178224537418    3.730596396533   -0.898660000000
 C   -1.675274537418    4.946856396533    0.000000000000
 O   -1.209814537418    6.024996396533    0.000000000000
 O   -0.559824537418    3.734436396533    0.000000000000
 H    0.237955462582    4.305796396533    0.000000000000
LI   -0.347304537418    2.316736396533    1.388570000000
LI   -0.347304537418    2.316736396533   -1.388570000000
 O    0.641019322151   -4.276055100556    0.000000000000
 H   -0.156763873452   -4.847415241986    0.000000000000
 C    1.756469197113   -5.488474964649    0.000000000000
 O    1.291008762568   -6.566620378205    0.000000000000
 C    3.117607572414   -4.889501899073    0.000000000000
 H    3.846736799510   -5.709645412303    0.000000000000
 H    3.259421361284   -4.272205174161   -0.898654509585
 H    3.259421361284   -4.272205174161    0.898654509585
