18

 C   -3.043051360777    4.392168777711    0.000000000000
 H   -3.772171360777    5.212308777711    0.000000000000
 H   -3.184861360777    3.774868777711    0.898660000000
 H   -3.184861360777    3.774868777711   -0.898660000000
 C   -1.681911360777    4.991128777711    0.000000000000
 O   -1.216451360777    6.069268777711    0.000000000000
 O   -0.566461360777    3.778708777711    0.000000000000
 H    0.231318639223    4.350068777711    0.000000000000
LI   -0.353941360777    2.361008777711    1.388570000000
LI   -0.353941360777    2.361008777711   -1.388570000000
 O    0.649207731626   -4.330677676133    0.000000000000
 H   -0.148575463977   -4.902037817562    0.000000000000
 C    1.764657606588   -5.543097540225    0.000000000000
 O    1.299197172043   -6.621242953782    0.000000000000
 C    3.125795981889   -4.944124474650    0.000000000000
 H    3.854925208985   -5.764267987880    0.000000000000
 H    3.267609770759   -4.326827749737   -0.898654509585
 H    3.267609770759   -4.326827749737    0.898654509585
