18

 C   -3.049688184136    4.436441158888    0.000000000000
 H   -3.778808184136    5.256581158888    0.000000000000
 H   -3.191498184136    3.819141158888    0.898660000000
 H   -3.191498184136    3.819141158888   -0.898660000000
 C   -1.688548184136    5.035401158888    0.000000000000
 O   -1.223088184136    6.113541158888    0.000000000000
 O   -0.573098184136    3.822981158888    0.000000000000
 H    0.224681815864    4.394341158888    0.000000000000
LI   -0.360578184136    2.405281158888    1.388570000000
LI   -0.360578184136    2.405281158888   -1.388570000000
 O    0.657396141101   -4.385300251709    0.000000000000
 H   -0.140387054501   -4.956660393139    0.000000000000
 C    1.772846016063   -5.597720115802    0.000000000000
 O    1.307385581518   -6.675865529358    0.000000000000
 C    3.133984391364   -4.998747050226    0.000000000000
 H    3.863113618461   -5.818890563456    0.000000000000
 H    3.275798180234   -4.381450325313   -0.898654509585
 H    3.275798180234   -4.381450325313    0.898654509585
