18

 C   -3.056325007495    4.480713540066    0.000000000000
 H   -3.785445007495    5.300853540066    0.000000000000
 H   -3.198135007495    3.863413540066    0.898660000000
 H   -3.198135007495    3.863413540066   -0.898660000000
 C   -1.695185007495    5.079673540066    0.000000000000
 O   -1.229725007495    6.157813540066    0.000000000000
 O   -0.579735007495    3.867253540066    0.000000000000
 H    0.218044992505    4.438613540066    0.000000000000
LI   -0.367215007495    2.449553540066    1.388570000000
LI   -0.367215007495    2.449553540066   -1.388570000000
 O    0.665584550576   -4.439922827285    0.000000000000
 H   -0.132198645026   -5.011282968715    0.000000000000
 C    1.781034425539   -5.652342691378    0.000000000000
 O    1.315573990993   -6.730488104934    0.000000000000
 C    3.142172800839   -5.053369625803    0.000000000000
 H    3.871302027936   -5.873513139033    0.000000000000
 H    3.283986589709   -4.436072900890   -0.898654509585
 H    3.283986589709   -4.436072900890    0.898654509585
