18

 C   -3.062961830854    4.524985921244    0.000000000000
 H   -3.792081830854    5.345125921244    0.000000000000
 H   -3.204771830854    3.907685921244    0.898660000000
 H   -3.204771830854    3.907685921244   -0.898660000000
 C   -1.701821830854    5.123945921244    0.000000000000
 O   -1.236361830854    6.202085921244    0.000000000000
 O   -0.586371830854    3.911525921244    0.000000000000
 H    0.211408169146    4.482885921244    0.000000000000
LI   -0.373851830854    2.493825921244    1.388570000000
LI   -0.373851830854    2.493825921244   -1.388570000000
 O    0.673772960051   -4.494545402862    0.000000000000
 H   -0.124010235551   -5.065905544291    0.000000000000
 C    1.789222835014   -5.706965266954    0.000000000000
 O    1.323762400468   -6.785110680511    0.000000000000
 C    3.150361210314   -5.107992201379    0.000000000000
 H    3.879490437411   -5.928135714609    0.000000000000
 H    3.292174999185   -4.490695476466   -0.898654509585
 H    3.292174999185   -4.490695476466    0.898654509585
