18

 C   -3.076235477572    4.613530683600    0.000000000000
 H   -3.805355477572    5.433670683600    0.000000000000
 H   -3.218045477572    3.996230683600    0.898660000000
 H   -3.218045477572    3.996230683600   -0.898660000000
 C   -1.715095477572    5.212490683600    0.000000000000
 O   -1.249635477572    6.290630683600    0.000000000000
 O   -0.599645477572    4.000070683600    0.000000000000
 H    0.198134522428    4.571430683600    0.000000000000
LI   -0.387125477572    2.582370683600    1.388570000000
LI   -0.387125477572    2.582370683600   -1.388570000000
 O    0.690149779001   -4.603790554014    0.000000000000
 H   -0.107633416601   -5.175150695444    0.000000000000
 C    1.805599653964   -5.816210418107    0.000000000000
 O    1.340139219418   -6.894355831663    0.000000000000
 C    3.166738029264   -5.217237352532    0.000000000000
 H    3.895867256361   -6.037380865762    0.000000000000
 H    3.308551818135   -4.599940627619   -0.898654509585
 H    3.308551818135   -4.599940627619    0.898654509585
