18

 C   -3.089509124291    4.702075445955    0.000000000000
 H   -3.818629124291    5.522215445955    0.000000000000
 H   -3.231319124291    4.084775445955    0.898660000000
 H   -3.231319124291    4.084775445955   -0.898660000000
 C   -1.728369124291    5.301035445955    0.000000000000
 O   -1.262909124291    6.379175445955    0.000000000000
 O   -0.612919124291    4.088615445955    0.000000000000
 H    0.184860875709    4.659975445955    0.000000000000
LI   -0.400399124291    2.670915445955    1.388570000000
LI   -0.400399124291    2.670915445955   -1.388570000000
 O    0.706526597951   -4.713035705167    0.000000000000
 H   -0.091256597651   -5.284395846597    0.000000000000
 C    1.821976472914   -5.925455569260    0.000000000000
 O    1.356516038368   -7.003600982816    0.000000000000
 C    3.183114848214   -5.326482503684    0.000000000000
 H    3.912244075311   -6.146626016914    0.000000000000
 H    3.324928637085   -4.709185778772   -0.898654509585
 H    3.324928637085   -4.709185778772    0.898654509585
