18

 C   -3.109419594368    4.834892589489    0.000000000000
 H   -3.838539594368    5.655032589489    0.000000000000
 H   -3.251229594368    4.217592589489    0.898660000000
 H   -3.251229594368    4.217592589489   -0.898660000000
 C   -1.748279594368    5.433852589489    0.000000000000
 O   -1.282819594368    6.511992589489    0.000000000000
 O   -0.632829594368    4.221432589489    0.000000000000
 H    0.164950405632    4.792792589489    0.000000000000
LI   -0.420309594368    2.803732589489    1.388570000000
LI   -0.420309594368    2.803732589489   -1.388570000000
 O    0.731091826377   -4.876903431896    0.000000000000
 H   -0.066691369226   -5.448263573326    0.000000000000
 C    1.846541701339   -6.089323295989    0.000000000000
 O    1.381081266794   -7.167468709545    0.000000000000
 C    3.207680076639   -5.490350230413    0.000000000000
 H    3.936809303736   -6.310493743644    0.000000000000
 H    3.349493865510   -4.873053505501   -0.898654509585
 H    3.349493865510   -4.873053505501    0.898654509585
