18

 C   -3.116056417727    4.879164970667    0.000000000000
 H   -3.845176417727    5.699304970667    0.000000000000
 H   -3.257866417727    4.261864970667    0.898660000000
 H   -3.257866417727    4.261864970667   -0.898660000000
 C   -1.754916417727    5.478124970667    0.000000000000
 O   -1.289456417727    6.556264970667    0.000000000000
 O   -0.639466417727    4.265704970667    0.000000000000
 H    0.158313582273    4.837064970667    0.000000000000
LI   -0.426946417727    2.848004970667    1.388570000000
LI   -0.426946417727    2.848004970667   -1.388570000000
 O    0.739280235852   -4.931526007473    0.000000000000
 H   -0.058502959751   -5.502886148902    0.000000000000
 C    1.854730110814   -6.143945871565    0.000000000000
 O    1.389269676269   -7.222091285122    0.000000000000
 C    3.215868486114   -5.544972805990    0.000000000000
 H    3.944997713211   -6.365116319220    0.000000000000
 H    3.357682274985   -4.927676081077   -0.898654509585
 H    3.357682274985   -4.927676081077    0.898654509585
