18

 C   -3.135966887804    5.011982114200    0.000000000000
 H   -3.865086887804    5.832122114200    0.000000000000
 H   -3.277776887804    4.394682114200    0.898660000000
 H   -3.277776887804    4.394682114200   -0.898660000000
 C   -1.774826887804    5.610942114200    0.000000000000
 O   -1.309366887804    6.689082114200    0.000000000000
 O   -0.659376887804    4.398522114200    0.000000000000
 H    0.138403112196    4.969882114200    0.000000000000
LI   -0.446856887804    2.980822114200    1.388570000000
LI   -0.446856887804    2.980822114200   -1.388570000000
 O    0.763845464277   -5.095393734202    0.000000000000
 H   -0.033937731326   -5.666753875631    0.000000000000
 C    1.879295339239   -6.307813598294    0.000000000000
 O    1.413834904694   -7.385959011851    0.000000000000
 C    3.240433714540   -5.708840532719    0.000000000000
 H    3.969562941636   -6.528984045949    0.000000000000
 H    3.382247503410   -5.091543807806   -0.898654509585
 H    3.382247503410   -5.091543807806    0.898654509585
