18

 C   -3.155877357882    5.144799257734    0.000000000000
 H   -3.884997357882    5.964939257734    0.000000000000
 H   -3.297687357882    4.527499257734    0.898660000000
 H   -3.297687357882    4.527499257734   -0.898660000000
 C   -1.794737357882    5.743759257734    0.000000000000
 O   -1.329277357882    6.821899257734    0.000000000000
 O   -0.679287357882    4.531339257734    0.000000000000
 H    0.118492642118    5.102699257734    0.000000000000
LI   -0.466767357882    3.113639257734    1.388570000000
LI   -0.466767357882    3.113639257734   -1.388570000000
 O    0.788410692702   -5.259261460931    0.000000000000
 H   -0.009372502900   -5.830621602360    0.000000000000
 C    1.903860567665   -6.471681325023    0.000000000000
 O    1.438400133119   -7.549826738580    0.000000000000
 C    3.264998942965   -5.872708259448    0.000000000000
 H    3.994128170062   -6.692851772678    0.000000000000
 H    3.406812731835   -5.255411534535   -0.898654509585
 H    3.406812731835   -5.255411534535    0.898654509585
