13

 C   -3.584464517149   -0.560368771717    0.000000000000
 H   -4.679982517149   -0.560368771717    0.000000000000
 C   -2.852997517149    0.649613228283    0.000000000000
 H   -3.390880517149    1.608232228283    0.000000000000
 C   -2.852997517149   -1.770351771717    0.000000000000
 H   -3.390879517149   -2.728970771717    0.000000000000
 C   -1.447827517149    0.654728228283    0.000000000000
 H   -0.901197517149    1.606886228283    0.000000000000
 C   -1.447827517149   -1.775465771717    0.000000000000
 H   -0.901197517149   -2.727622771717    0.000000000000
 C   -0.652790517149   -0.560368771717    0.000000000000
 O    0.633556482851   -0.560368771717    0.000000000000
CS    1.183556482851    0.392259172446    0.000000000000
