13

 C   -3.643287988396   -0.662254012595    0.000000000000
 H   -4.738805988396   -0.662254012595    0.000000000000
 C   -2.911820988396    0.547727987405    0.000000000000
 H   -3.449703988396    1.506346987405    0.000000000000
 C   -2.911820988396   -1.872237012595    0.000000000000
 H   -3.449702988396   -2.830856012595    0.000000000000
 C   -1.506650988396    0.552842987405    0.000000000000
 H   -0.960020988396    1.505000987405    0.000000000000
 C   -1.506650988396   -1.877351012595    0.000000000000
 H   -0.960020988396   -2.829508012595    0.000000000000
 C   -0.711613988396   -0.662254012595    0.000000000000
 O    0.574733011604   -0.662254012595    0.000000000000
CS    1.224733011604    0.463579012325    0.000000000000
