13

 C   -3.702111459644   -0.764139253473    0.000000000000
 H   -4.797629459644   -0.764139253473    0.000000000000
 C   -2.970644459644    0.445842746527    0.000000000000
 H   -3.508527459644    1.404461746527    0.000000000000
 C   -2.970644459644   -1.974122253473    0.000000000000
 H   -3.508526459644   -2.932741253473    0.000000000000
 C   -1.565474459644    0.450957746527    0.000000000000
 H   -1.018844459644    1.403115746527    0.000000000000
 C   -1.565474459644   -1.979236253473    0.000000000000
 H   -1.018844459644   -2.931393253473    0.000000000000
 C   -0.770437459644   -0.764139253473    0.000000000000
 O    0.515909540356   -0.764139253473    0.000000000000
CS    1.265909540356    0.534898852204    0.000000000000
