13

 C   -3.731523195267   -0.815081873912    0.000000000000
 H   -4.827041195267   -0.815081873912    0.000000000000
 C   -3.000056195267    0.394900126088    0.000000000000
 H   -3.537939195267    1.353519126088    0.000000000000
 C   -3.000056195267   -2.025064873912    0.000000000000
 H   -3.537938195267   -2.983683873912    0.000000000000
 C   -1.594886195267    0.400015126088    0.000000000000
 H   -1.048256195267    1.352173126088    0.000000000000
 C   -1.594886195267   -2.030178873912    0.000000000000
 H   -1.048256195267   -2.982335873912    0.000000000000
 C   -0.799849195267   -0.815081873912    0.000000000000
 O    0.486497804733   -0.815081873912    0.000000000000
CS    1.286497804733    0.570558772143    0.000000000000
