13

 C   -3.760934930891   -0.866024494351    0.000000000000
 H   -4.856452930891   -0.866024494351    0.000000000000
 C   -3.029467930891    0.343957505649    0.000000000000
 H   -3.567350930891    1.302576505649    0.000000000000
 C   -3.029467930891   -2.076007494351    0.000000000000
 H   -3.567349930891   -3.034626494351    0.000000000000
 C   -1.624297930891    0.349072505649    0.000000000000
 H   -1.077667930891    1.301230505649    0.000000000000
 C   -1.624297930891   -2.081121494351    0.000000000000
 H   -1.077667930891   -3.033278494351    0.000000000000
 C   -0.829260930891   -0.866024494351    0.000000000000
 O    0.457086069109   -0.866024494351    0.000000000000
CS    1.307086069109    0.606218692083    0.000000000000
