13

 C   -6.202108987654   -5.094261990783    0.000000000000
 H   -7.297626987654   -5.094261990783    0.000000000000
 C   -5.470641987654   -3.884279990783    0.000000000000
 H   -6.008524987654   -2.925660990783    0.000000000000
 C   -5.470641987654   -6.304244990783    0.000000000000
 H   -6.008523987654   -7.262863990783    0.000000000000
 C   -4.065471987654   -3.879164990783    0.000000000000
 H   -3.518841987654   -2.927006990783    0.000000000000
 C   -4.065471987654   -6.309358990783    0.000000000000
 H   -3.518841987654   -7.261515990783    0.000000000000
 C   -3.270434987654   -5.094261990783    0.000000000000
 O   -1.984087987654   -5.094261990783    0.000000000000
CS    3.015912012346    3.565992047061    0.000000000000
