13

 C   -3.878581873385   -1.069794976106    0.000000000000
 H   -4.974099873385   -1.069794976106    0.000000000000
 C   -3.147114873385    0.140187023894    0.000000000000
 H   -3.684997873385    1.098806023894    0.000000000000
 C   -3.147114873385   -2.279777976106    0.000000000000
 H   -3.684996873385   -3.238396976106    0.000000000000
 C   -1.741944873385    0.145302023894    0.000000000000
 H   -1.195314873385    1.097460023894    0.000000000000
 C   -1.741944873385   -2.284891976106    0.000000000000
 H   -1.195314873385   -3.237048976106    0.000000000000
 C   -0.946907873385   -1.069794976106    0.000000000000
 O    0.339439126615   -1.069794976106    0.000000000000
CS    1.389439126615    0.748858371841    0.000000000000
