13

 C   -3.907993609009   -1.120737596545    0.000000000000
 H   -5.003511609009   -1.120737596545    0.000000000000
 C   -3.176526609009    0.089244403455    0.000000000000
 H   -3.714409609009    1.047863403455    0.000000000000
 C   -3.176526609009   -2.330720596545    0.000000000000
 H   -3.714408609009   -3.289339596545    0.000000000000
 C   -1.771356609009    0.094359403455    0.000000000000
 H   -1.224726609009    1.046517403455    0.000000000000
 C   -1.771356609009   -2.335834596545    0.000000000000
 H   -1.224726609009   -3.287991596545    0.000000000000
 C   -0.976319609009   -1.120737596545    0.000000000000
 O    0.310027390991   -1.120737596545    0.000000000000
CS    1.410027390991    0.784518291780    0.000000000000
