13

 C   -4.025640551504   -1.324508078301    0.000000000000
 H   -5.121158551504   -1.324508078301    0.000000000000
 C   -3.294173551504   -0.114526078301    0.000000000000
 H   -3.832056551504    0.844092921699    0.000000000000
 C   -3.294173551504   -2.534491078301    0.000000000000
 H   -3.832055551504   -3.493110078301    0.000000000000
 C   -1.889003551504   -0.109411078301    0.000000000000
 H   -1.342373551504    0.842746921699    0.000000000000
 C   -1.889003551504   -2.539605078301    0.000000000000
 H   -1.342373551504   -3.491762078301    0.000000000000
 C   -1.093966551504   -1.324508078301    0.000000000000
 O    0.192380448496   -1.324508078301    0.000000000000
CS    1.492380448496    0.927157971538    0.000000000000
