13

 C   -4.143287493998   -1.528278560057    0.000000000000
 H   -5.238805493998   -1.528278560057    0.000000000000
 C   -3.411820493998   -0.318296560057    0.000000000000
 H   -3.949703493998    0.640322439943    0.000000000000
 C   -3.411820493998   -2.738261560057    0.000000000000
 H   -3.949702493998   -3.696880560057    0.000000000000
 C   -2.006650493998   -0.313181560057    0.000000000000
 H   -1.460020493998    0.638976439943    0.000000000000
 C   -2.006650493998   -2.743375560057    0.000000000000
 H   -1.460020493998   -3.695532560057    0.000000000000
 C   -1.211613493998   -1.528278560057    0.000000000000
 O    0.074733506002   -1.528278560057    0.000000000000
CS    1.574733506002    1.069797651296    0.000000000000
