13

 C   -4.407993114611   -1.986762144008    0.000000000000
 H   -5.503511114611   -1.986762144008    0.000000000000
 C   -3.676526114611   -0.776780144008    0.000000000000
 H   -4.214409114611    0.181838855992    0.000000000000
 C   -3.676526114611   -3.196745144008    0.000000000000
 H   -4.214408114611   -4.155364144008    0.000000000000
 C   -2.271356114611   -0.771665144008    0.000000000000
 H   -1.724726114611    0.180492855992    0.000000000000
 C   -2.271356114611   -3.201859144008    0.000000000000
 H   -1.724726114611   -4.154016144008    0.000000000000
 C   -1.476319114611   -1.986762144008    0.000000000000
 O   -0.189972114611   -1.986762144008    0.000000000000
CS    1.760027885389    1.390736930752    0.000000000000
