13

 C   -4.525640057106   -2.190532625763    0.000000000000
 H   -5.621158057106   -2.190532625763    0.000000000000
 C   -3.794173057106   -0.980550625763    0.000000000000
 H   -4.332056057106   -0.021931625763    0.000000000000
 C   -3.794173057106   -3.400515625763    0.000000000000
 H   -4.332055057106   -4.359134625763    0.000000000000
 C   -2.389003057106   -0.975435625763    0.000000000000
 H   -1.842373057106   -0.023277625763    0.000000000000
 C   -2.389003057106   -3.405629625763    0.000000000000
 H   -1.842373057106   -4.357786625763    0.000000000000
 C   -1.593966057106   -2.190532625763    0.000000000000
 O   -0.307619057106   -2.190532625763    0.000000000000
CS    1.842380942894    1.533376610510    0.000000000000
