13

 C   -4.672698735224   -2.445245727958    0.000000000000
 H   -5.768216735224   -2.445245727958    0.000000000000
 C   -3.941231735224   -1.235263727958    0.000000000000
 H   -4.479114735224   -0.276644727958    0.000000000000
 C   -3.941231735224   -3.655228727958    0.000000000000
 H   -4.479113735224   -4.613847727958    0.000000000000
 C   -2.536061735224   -1.230148727958    0.000000000000
 H   -1.989431735224   -0.277990727958    0.000000000000
 C   -2.536061735224   -3.660342727958    0.000000000000
 H   -1.989431735224   -4.612499727958    0.000000000000
 C   -1.741024735224   -2.445245727958    0.000000000000
 O   -0.454677735224   -2.445245727958    0.000000000000
CS    1.945322264776    1.711676210207    0.000000000000
