13

 C   -4.702110470848   -2.496188348397    0.000000000000
 H   -5.797628470848   -2.496188348397    0.000000000000
 C   -3.970643470848   -1.286206348397    0.000000000000
 H   -4.508526470848   -0.327587348397    0.000000000000
 C   -3.970643470848   -3.706171348397    0.000000000000
 H   -4.508525470848   -4.664790348397    0.000000000000
 C   -2.565473470848   -1.281091348397    0.000000000000
 H   -2.018843470848   -0.328933348397    0.000000000000
 C   -2.565473470848   -3.711285348397    0.000000000000
 H   -2.018843470848   -4.663442348397    0.000000000000
 C   -1.770436470848   -2.496188348397    0.000000000000
 O   -0.484089470848   -2.496188348397    0.000000000000
CS    1.965910529152    1.747336130147    0.000000000000
