13

 C   -4.790345677719   -2.649016209714    0.000000000000
 H   -5.885863677719   -2.649016209714    0.000000000000
 C   -4.058878677719   -1.439034209714    0.000000000000
 H   -4.596761677719   -0.480415209714    0.000000000000
 C   -4.058878677719   -3.858999209714    0.000000000000
 H   -4.596760677719   -4.817618209714    0.000000000000
 C   -2.653708677719   -1.433919209714    0.000000000000
 H   -2.107078677719   -0.481761209714    0.000000000000
 C   -2.653708677719   -3.864113209714    0.000000000000
 H   -2.107078677719   -4.816270209714    0.000000000000
 C   -1.858671677719   -2.649016209714    0.000000000000
 O   -0.572324677719   -2.649016209714    0.000000000000
CS    2.027675322281    1.854315889965    0.000000000000
