13

 C   -4.819757413342   -2.699958830153    0.000000000000
 H   -5.915275413342   -2.699958830153    0.000000000000
 C   -4.088290413342   -1.489976830153    0.000000000000
 H   -4.626173413342   -0.531357830153    0.000000000000
 C   -4.088290413342   -3.909941830153    0.000000000000
 H   -4.626172413342   -4.868560830153    0.000000000000
 C   -2.683120413342   -1.484861830153    0.000000000000
 H   -2.136490413342   -0.532703830153    0.000000000000
 C   -2.683120413342   -3.915055830153    0.000000000000
 H   -2.136490413342   -4.867212830153    0.000000000000
 C   -1.888083413342   -2.699958830153    0.000000000000
 O   -0.601736413342   -2.699958830153    0.000000000000
CS    2.048263586658    1.889975809905    0.000000000000
