13

 C   -5.025639562708   -3.056557173225    0.000000000000
 H   -6.121157562708   -3.056557173225    0.000000000000
 C   -4.294172562708   -1.846575173225    0.000000000000
 H   -4.832055562708   -0.887956173225    0.000000000000
 C   -4.294172562708   -4.266540173225    0.000000000000
 H   -4.832054562708   -5.225159173225    0.000000000000
 C   -2.889002562708   -1.841460173225    0.000000000000
 H   -2.342372562708   -0.889302173225    0.000000000000
 C   -2.889002562708   -4.271654173225    0.000000000000
 H   -2.342372562708   -5.223811173225    0.000000000000
 C   -2.093965562708   -3.056557173225    0.000000000000
 O   -0.807618562708   -3.056557173225    0.000000000000
CS    2.192381437292    2.139595249481    0.000000000000
