13

 C   -5.055051298332   -3.107499793664    0.000000000000
 H   -6.150569298332   -3.107499793664    0.000000000000
 C   -4.323584298332   -1.897517793664    0.000000000000
 H   -4.861467298332   -0.938898793664    0.000000000000
 C   -4.323584298332   -4.317482793664    0.000000000000
 H   -4.861466298332   -5.276101793664    0.000000000000
 C   -2.918414298332   -1.892402793664    0.000000000000
 H   -2.371784298332   -0.940244793664    0.000000000000
 C   -2.918414298332   -4.322596793664    0.000000000000
 H   -2.371784298332   -5.274753793664    0.000000000000
 C   -2.123377298332   -3.107499793664    0.000000000000
 O   -0.837030298332   -3.107499793664    0.000000000000
CS    2.212969701668    2.175255169421    0.000000000000
