13

 C   -5.143286505203   -3.260327654981    0.000000000000
 H   -6.238804505203   -3.260327654981    0.000000000000
 C   -4.411819505203   -2.050345654981    0.000000000000
 H   -4.949702505203   -1.091726654981    0.000000000000
 C   -4.411819505203   -4.470310654981    0.000000000000
 H   -4.949701505203   -5.428929654981    0.000000000000
 C   -3.006649505203   -2.045230654981    0.000000000000
 H   -2.460019505203   -1.093072654981    0.000000000000
 C   -3.006649505203   -4.475424654981    0.000000000000
 H   -2.460019505203   -5.427581654981    0.000000000000
 C   -2.211612505203   -3.260327654981    0.000000000000
 O   -0.925265505203   -3.260327654981    0.000000000000
CS    2.274734494797    2.282234929239    0.000000000000
