13

 C   -5.172698240826   -3.311270275420    0.000000000000
 H   -6.268216240826   -3.311270275420    0.000000000000
 C   -4.441231240826   -2.101288275420    0.000000000000
 H   -4.979114240826   -1.142669275420    0.000000000000
 C   -4.441231240826   -4.521253275420    0.000000000000
 H   -4.979113240826   -5.479872275420    0.000000000000
 C   -3.036061240826   -2.096173275420    0.000000000000
 H   -2.489431240826   -1.144015275420    0.000000000000
 C   -3.036061240826   -4.526367275420    0.000000000000
 H   -2.489431240826   -5.478524275420    0.000000000000
 C   -2.241024240826   -3.311270275420    0.000000000000
 O   -0.954677240826   -3.311270275420    0.000000000000
CS    2.295322759174    2.317894849179    0.000000000000
