13

 C   -5.378580390192   -3.667868618493    0.000000000000
 H   -6.474098390192   -3.667868618493    0.000000000000
 C   -4.647113390192   -2.457886618493    0.000000000000
 H   -5.184996390192   -1.499267618493    0.000000000000
 C   -4.647113390192   -4.877851618493    0.000000000000
 H   -5.184995390192   -5.836470618493    0.000000000000
 C   -3.241943390192   -2.452771618493    0.000000000000
 H   -2.695313390192   -1.500613618493    0.000000000000
 C   -3.241943390192   -4.882965618493    0.000000000000
 H   -2.695313390192   -5.835122618493    0.000000000000
 C   -2.446906390192   -3.667868618493    0.000000000000
 O   -1.160559390192   -3.667868618493    0.000000000000
CS    2.439440609808    2.567514288755    0.000000000000
