13

 C   -5.437403861439   -3.769753859371    0.000000000000
 H   -6.532921861439   -3.769753859371    0.000000000000
 C   -4.705936861439   -2.559771859371    0.000000000000
 H   -5.243819861439   -1.601152859371    0.000000000000
 C   -4.705936861439   -4.979736859371    0.000000000000
 H   -5.243818861439   -5.938355859371    0.000000000000
 C   -3.300766861439   -2.554656859371    0.000000000000
 H   -2.754136861439   -1.602498859371    0.000000000000
 C   -3.300766861439   -4.984850859371    0.000000000000
 H   -2.754136861439   -5.937007859371    0.000000000000
 C   -2.505729861439   -3.769753859371    0.000000000000
 O   -1.219382861439   -3.769753859371    0.000000000000
CS    2.480617138561    2.638834128634    0.000000000000
