13

 C   -5.496227332686   -3.871639100249    0.000000000000
 H   -6.591745332686   -3.871639100249    0.000000000000
 C   -4.764760332686   -2.661657100249    0.000000000000
 H   -5.302643332686   -1.703038100249    0.000000000000
 C   -4.764760332686   -5.081622100249    0.000000000000
 H   -5.302642332686   -6.040241100249    0.000000000000
 C   -3.359590332686   -2.656542100249    0.000000000000
 H   -2.812960332686   -1.704384100249    0.000000000000
 C   -3.359590332686   -5.086736100249    0.000000000000
 H   -2.812960332686   -6.038893100249    0.000000000000
 C   -2.564553332686   -3.871639100249    0.000000000000
 O   -1.278206332686   -3.871639100249    0.000000000000
CS    2.521793667314    2.710153968513    0.000000000000
