13

 C   -5.525639068310   -3.922581720688    0.000000000000
 H   -6.621157068310   -3.922581720688    0.000000000000
 C   -4.794172068310   -2.712599720688    0.000000000000
 H   -5.332055068310   -1.753980720688    0.000000000000
 C   -4.794172068310   -5.132564720688    0.000000000000
 H   -5.332054068310   -6.091183720688    0.000000000000
 C   -3.389002068310   -2.707484720688    0.000000000000
 H   -2.842372068310   -1.755326720688    0.000000000000
 C   -3.389002068310   -5.137678720688    0.000000000000
 H   -2.842372068310   -6.089835720688    0.000000000000
 C   -2.593965068310   -3.922581720688    0.000000000000
 O   -1.307618068310   -3.922581720688    0.000000000000
CS    2.542381931690    2.745813888453    0.000000000000
