13

 C   -5.555050803934   -3.973524341127    0.000000000000
 H   -6.650568803934   -3.973524341127    0.000000000000
 C   -4.823583803934   -2.763542341127    0.000000000000
 H   -5.361466803934   -1.804923341127    0.000000000000
 C   -4.823583803934   -5.183507341127    0.000000000000
 H   -5.361465803934   -6.142126341127    0.000000000000
 C   -3.418413803934   -2.758427341127    0.000000000000
 H   -2.871783803934   -1.806269341127    0.000000000000
 C   -3.418413803934   -5.188621341127    0.000000000000
 H   -2.871783803934   -6.140778341127    0.000000000000
 C   -2.623376803934   -3.973524341127    0.000000000000
 O   -1.337029803934   -3.973524341127    0.000000000000
CS    2.562970196066    2.781473808392    0.000000000000
