13

 C   -5.731521217676   -4.279180063760    0.000000000000
 H   -6.827039217676   -4.279180063760    0.000000000000
 C   -5.000054217676   -3.069198063760    0.000000000000
 H   -5.537937217676   -2.110579063760    0.000000000000
 C   -5.000054217676   -5.489163063760    0.000000000000
 H   -5.537936217676   -6.447782063760    0.000000000000
 C   -3.594884217676   -3.064083063760    0.000000000000
 H   -3.048254217676   -2.111925063760    0.000000000000
 C   -3.594884217676   -5.494277063760    0.000000000000
 H   -3.048254217676   -6.446434063760    0.000000000000
 C   -2.799847217676   -4.279180063760    0.000000000000
 O   -1.513500217676   -4.279180063760    0.000000000000
CS    2.686499782324    2.995433328029    0.000000000000
