13

 C   -5.907991631417   -4.584835786394    0.000000000000
 H   -7.003509631417   -4.584835786394    0.000000000000
 C   -5.176524631417   -3.374853786394    0.000000000000
 H   -5.714407631417   -2.416234786394    0.000000000000
 C   -5.176524631417   -5.794818786394    0.000000000000
 H   -5.714406631417   -6.753437786394    0.000000000000
 C   -3.771354631417   -3.369738786394    0.000000000000
 H   -3.224724631417   -2.417580786394    0.000000000000
 C   -3.771354631417   -5.799932786394    0.000000000000
 H   -3.224724631417   -6.752089786394    0.000000000000
 C   -2.976317631417   -4.584835786394    0.000000000000
 O   -1.689970631417   -4.584835786394    0.000000000000
CS    2.810029368583    3.209392847666    0.000000000000
