13

 C   -5.937403367041   -4.635778406833    0.000000000000
 H   -7.032921367041   -4.635778406833    0.000000000000
 C   -5.205936367041   -3.425796406833    0.000000000000
 H   -5.743819367041   -2.467177406833    0.000000000000
 C   -5.205936367041   -5.845761406833    0.000000000000
 H   -5.743818367041   -6.804380406833    0.000000000000
 C   -3.800766367041   -3.420681406833    0.000000000000
 H   -3.254136367041   -2.468523406833    0.000000000000
 C   -3.800766367041   -5.850875406833    0.000000000000
 H   -3.254136367041   -6.803032406833    0.000000000000
 C   -3.005729367041   -4.635778406833    0.000000000000
 O   -1.719382367041   -4.635778406833    0.000000000000
CS    2.830617632959    3.245052767605    0.000000000000
