13

 C   -5.966815102665   -4.686721027272    0.000000000000
 H   -7.062333102665   -4.686721027272    0.000000000000
 C   -5.235348102665   -3.476739027272    0.000000000000
 H   -5.773231102665   -2.518120027272    0.000000000000
 C   -5.235348102665   -5.896704027272    0.000000000000
 H   -5.773230102665   -6.855323027272    0.000000000000
 C   -3.830178102665   -3.471624027272    0.000000000000
 H   -3.283548102665   -2.519466027272    0.000000000000
 C   -3.830178102665   -5.901818027272    0.000000000000
 H   -3.283548102665   -6.853975027272    0.000000000000
 C   -3.035141102665   -4.686721027272    0.000000000000
 O   -1.748794102665   -4.686721027272    0.000000000000
CS    2.851205897335    3.280712687545    0.000000000000
