13

 C   -6.025638573912   -4.788606268150    0.000000000000
 H   -7.121156573912   -4.788606268150    0.000000000000
 C   -5.294171573912   -3.578624268150    0.000000000000
 H   -5.832054573912   -2.620005268150    0.000000000000
 C   -5.294171573912   -5.998589268150    0.000000000000
 H   -5.832053573912   -6.957208268150    0.000000000000
 C   -3.889001573912   -3.573509268150    0.000000000000
 H   -3.342371573912   -2.621351268150    0.000000000000
 C   -3.889001573912   -6.003703268150    0.000000000000
 H   -3.342371573912   -6.955860268150    0.000000000000
 C   -3.093964573912   -4.788606268150    0.000000000000
 O   -1.807617573912   -4.788606268150    0.000000000000
CS    2.892382426088    3.352032527424    0.000000000000
