13

 C   -6.055050309536   -4.839548888589    0.000000000000
 H   -7.150568309536   -4.839548888589    0.000000000000
 C   -5.323583309536   -3.629566888589    0.000000000000
 H   -5.861466309536   -2.670947888589    0.000000000000
 C   -5.323583309536   -6.049531888589    0.000000000000
 H   -5.861465309536   -7.008150888589    0.000000000000
 C   -3.918413309536   -3.624451888589    0.000000000000
 H   -3.371783309536   -2.672293888589    0.000000000000
 C   -3.918413309536   -6.054645888589    0.000000000000
 H   -3.371783309536   -7.006802888589    0.000000000000
 C   -3.123376309536   -4.839548888589    0.000000000000
 O   -1.837029309536   -4.839548888589    0.000000000000
CS    2.912970690464    3.387692447363    0.000000000000
