13

 C   -6.084462045159   -4.890491509028    0.000000000000
 H   -7.179980045159   -4.890491509028    0.000000000000
 C   -5.352995045159   -3.680509509028    0.000000000000
 H   -5.890878045159   -2.721890509028    0.000000000000
 C   -5.352995045159   -6.100474509028    0.000000000000
 H   -5.890877045159   -7.059093509028    0.000000000000
 C   -3.947825045159   -3.675394509028    0.000000000000
 H   -3.401195045159   -2.723236509028    0.000000000000
 C   -3.947825045159   -6.105588509028    0.000000000000
 H   -3.401195045159   -7.057745509028    0.000000000000
 C   -3.152788045159   -4.890491509028    0.000000000000
 O   -1.866441045159   -4.890491509028    0.000000000000
CS    2.933558954841    3.423352367303    0.000000000000
