13

 C   -6.113873780783   -4.941434129467    0.000000000000
 H   -7.209391780783   -4.941434129467    0.000000000000
 C   -5.382406780783   -3.731452129467    0.000000000000
 H   -5.920289780783   -2.772833129467    0.000000000000
 C   -5.382406780783   -6.151417129467    0.000000000000
 H   -5.920288780783   -7.110036129467    0.000000000000
 C   -3.977236780783   -3.726337129467    0.000000000000
 H   -3.430606780783   -2.774179129467    0.000000000000
 C   -3.977236780783   -6.156531129467    0.000000000000
 H   -3.430606780783   -7.108688129467    0.000000000000
 C   -3.182199780783   -4.941434129467    0.000000000000
 O   -1.895852780783   -4.941434129467    0.000000000000
CS    2.954147219217    3.459012287242    0.000000000000
