13

 C   -6.143285516407   -4.992376749906    0.000000000000
 H   -7.238803516407   -4.992376749906    0.000000000000
 C   -5.411818516407   -3.782394749906    0.000000000000
 H   -5.949701516407   -2.823775749906    0.000000000000
 C   -5.411818516407   -6.202359749906    0.000000000000
 H   -5.949700516407   -7.160978749906    0.000000000000
 C   -4.006648516407   -3.777279749906    0.000000000000
 H   -3.460018516407   -2.825121749906    0.000000000000
 C   -4.006648516407   -6.207473749906    0.000000000000
 H   -3.460018516407   -7.159630749906    0.000000000000
 C   -3.211611516407   -4.992376749906    0.000000000000
 O   -1.925264516407   -4.992376749906    0.000000000000
CS    2.974735483593    3.494672207182    0.000000000000
