13

 N   -0.603494558336    1.310643312432    0.000137678559
 C    0.570245024747    2.038015503942   -0.000174800611
 H    0.452528164684    3.123333962986   -0.000290648170
 C   -0.649270531416   -0.082568479435   -0.000247376010
 O   -1.700858699972   -0.716671793276    0.000095991094
 N    0.611170009725   -0.666038535567    0.000169527312
 H    0.620985806848   -1.684323647433    0.000142223217
 C    1.872424298958   -0.029983048604    0.000186622148
 O    2.906117227026   -0.699246883020   -0.000559043516
 C    1.790945507198    1.430564012786   -0.000313275299
 H    2.714345645500    2.007624271652   -0.000653952076
 H   -1.507231734284    1.770297433792   -0.000063973041
NA   -2.814125353683   -1.387966978421    0.000459497606
