13

 N   -0.516005627859    1.363398775454    0.000109111463
 C    0.657733955224    2.090770966964   -0.000203367707
 H    0.540017095161    3.176089426008   -0.000319215266
 C   -0.561781600939   -0.029813016413   -0.000275943106
 O   -1.613369769495   -0.663916330254    0.000067423998
 N    0.698658940202   -0.613283072545    0.000140960216
 H    0.708474737325   -1.631568184411    0.000113656121
 C    1.959913229435    0.022772414418    0.000158055052
 O    2.993606157503   -0.646491419998   -0.000587610612
 C    1.878434437675    1.483319475808   -0.000341842395
 H    2.801834575977    2.060379734674   -0.000682519172
 H   -1.419742803807    1.823052896814   -0.000092540137
NA   -3.240451801842   -1.645040062389    0.000598702745
