13

 N    0.665094933583    2.075597526242   -0.000276544340
 C    1.838834516666    2.802969717752   -0.000589023510
 H    1.721117656603    3.888288176796   -0.000704871069
 C    0.619318960503    0.682385734375   -0.000661598909
 O   -0.432269208053    0.048282420534   -0.000318231805
 N    1.879759501644    0.098915678243   -0.000244695587
 H    1.889575298767   -0.919369433623   -0.000271999682
 C    3.141013790877    0.734971165206   -0.000227600751
 O    4.174706718945    0.065707330790   -0.000973266415
 C    3.059534999117    2.195518226596   -0.000727498198
 H    3.982935137419    2.772578485462   -0.001068174975
 H   -0.238642242365    2.535251647602   -0.000478195940
NA   -8.995858851983   -5.115526695963    0.002477972131
