13

 N   -0.501424139446    1.372191352624    0.000104350280
 C    0.672315443637    2.099563544134   -0.000208128890
 H    0.554598583574    3.184882003178   -0.000323976449
 C   -0.547200112526   -0.021020439243   -0.000280704289
 O   -1.598788281082   -0.655123753084    0.000062662815
 N    0.713240428615   -0.604490495375    0.000136199033
 H    0.723056225738   -1.622775607241    0.000108894938
 C    1.974494717848    0.031564991588    0.000153293869
 O    3.008187645916   -0.637698842828   -0.000592371795
 C    1.893015926088    1.492112052978   -0.000346603578
 H    2.816416064390    2.069172311844   -0.000687280355
 H   -1.405161315394    1.831845473984   -0.000097301320
NA   -3.311506209868   -1.687885576384    0.000621903602
