13

 N   -0.399353720556    1.433739392815    0.000071022001
 C    0.774385862527    2.161111584325   -0.000241457169
 H    0.656669002464    3.246430043369   -0.000357304728
 C   -0.445129693636    0.040527600948   -0.000314032568
 O   -1.496717862192   -0.593575712893    0.000029334536
 N    0.815310847505   -0.542942455184    0.000102870754
 H    0.825126644628   -1.561227567050    0.000075566659
 C    2.076565136738    0.093113031779    0.000119965590
 O    3.110258064806   -0.576150802637   -0.000625700074
 C    1.995086344978    1.553660093169   -0.000379931857
 H    2.918486483280    2.130720352035   -0.000720608634
 H   -1.303090896504    1.893393514175   -0.000130629599
NA   -3.808887066053   -1.987804174347    0.000784309598
