13

 N   -0.282701813253    1.504080010177    0.000032932539
 C    0.891037769830    2.231452201687   -0.000279546631
 H    0.773320909767    3.316770660731   -0.000395394190
 C   -0.328477786333    0.110868218310   -0.000352122030
 O   -1.380065954889   -0.523235095531   -0.000008754926
 N    0.931962754808   -0.472601837822    0.000064781292
 H    0.941778551931   -1.490886949688    0.000037477197
 C    2.193217044041    0.163453649141    0.000081876128
 O    3.226909972109   -0.505810185275   -0.000663789536
 C    2.111738252281    1.624000710531   -0.000418021319
 H    3.035138390583    2.201060969397   -0.000758698096
 H   -1.186438989201    1.963734131537   -0.000168719061
NA   -4.377322330265   -2.330568286305    0.000969916451
