13

 N   -0.253538836427    1.521665164518    0.000023410173
 C    0.920200746656    2.249037356028   -0.000289068997
 H    0.802483886593    3.334355815072   -0.000404916556
 C   -0.299314809507    0.128453372651   -0.000361644396
 O   -1.350902978063   -0.505649941190   -0.000018277292
 N    0.961125731634   -0.455016683481    0.000055258926
 H    0.970941528757   -1.473301795347    0.000027954831
 C    2.222380020867    0.181038803482    0.000072353762
 O    3.256072948935   -0.488225030934   -0.000673311902
 C    2.140901229107    1.641585864872   -0.000427543685
 H    3.064301367409    2.218646123738   -0.000768220462
 H   -1.157276012375    1.981319285878   -0.000178241427
NA   -4.519431146317   -2.416259314294    0.001016318164
