13

 N   -0.195212882776    1.556835473199    0.000004365442
 C    0.978526700307    2.284207664709   -0.000308113728
 H    0.860809840244    3.369526123753   -0.000423961287
 C   -0.240988855856    0.163623681332   -0.000380689127
 O   -1.292577024412   -0.470479632509   -0.000037322023
 N    1.019451685285   -0.419846374800    0.000036214195
 H    1.029267482408   -1.438131486666    0.000008910100
 C    2.280705974518    0.216209112163    0.000053309031
 O    3.314398902586   -0.453054722253   -0.000692356633
 C    2.199227182758    1.676756173553   -0.000446588416
 H    3.122627321060    2.253816432419   -0.000787265193
 H   -1.098950058724    2.016489594559   -0.000197286158
NA   -4.803648778423   -2.587641370273    0.001109121591
