13

 N   -0.151468417537    1.583213204709   -0.000009918106
 C    1.022271165546    2.310585396219   -0.000322397276
 H    0.904554305483    3.395903855263   -0.000438244835
 C   -0.197244390617    0.190001412842   -0.000394972675
 O   -1.248832559173   -0.444101900999   -0.000051605571
 N    1.063196150524   -0.393468643290    0.000021930647
 H    1.073011947647   -1.411753755156   -0.000005373448
 C    2.324450439757    0.242586843673    0.000039025483
 O    3.358143367825   -0.426676990743   -0.000706640181
 C    2.242971647997    1.703133905063   -0.000460871964
 H    3.166371786299    2.280194163929   -0.000801548741
 H   -1.055205593485    2.042867326069   -0.000211569706
NA   -5.016812002502   -2.716177912258    0.001178724161
