13

 N   -0.136886929125    1.592005781880   -0.000014679289
 C    1.036852653958    2.319377973390   -0.000327158459
 H    0.919135793895    3.404696432434   -0.000443006018
 C   -0.182662902205    0.198793990013   -0.000399733858
 O   -1.234251070761   -0.435309323828   -0.000056366754
 N    1.077777638936   -0.384676066119    0.000017169464
 H    1.087593436059   -1.402961177985   -0.000010134631
 C    2.339031928169    0.251379420844    0.000034264300
 O    3.372724856237   -0.417884413572   -0.000711401364
 C    2.257553136409    1.711926482234   -0.000465633147
 H    3.180953274711    2.288986741100   -0.000806309924
 H   -1.040624105073    2.051659903240   -0.000216330889
NA   -5.087866410529   -2.759023426252    0.001201925017
