13

 N   -0.093142463886    1.618383513390   -0.000028962837
 C    1.080597119197    2.345755704900   -0.000341442007
 H    0.962880259134    3.431074163944   -0.000457289566
 C   -0.138918436966    0.225171721523   -0.000414017406
 O   -1.190506605522   -0.408931592318   -0.000070650302
 N    1.121522104175   -0.358298334609    0.000002885916
 H    1.131337901298   -1.376583446475   -0.000024418179
 C    2.382776393408    0.277757152354    0.000019980752
 O    3.416469321476   -0.391506682062   -0.000725684912
 C    2.301297601648    1.738304213744   -0.000479916695
 H    3.224697739950    2.315364472610   -0.000820593472
 H   -0.996879639834    2.078037634750   -0.000230614437
NA   -5.301029634608   -2.887559968236    0.001271527587
