13

 N   -0.034816510234    1.653553822071   -0.000048007568
 C    1.138923072849    2.380926013581   -0.000360486738
 H    1.021206212786    3.466244472625   -0.000476334297
 C   -0.080592483314    0.260342030204   -0.000433062137
 O   -1.132180651870   -0.373761283637   -0.000089695033
 N    1.179848057827   -0.323128025928   -0.000016158815
 H    1.189663854950   -1.341413137794   -0.000043462910
 C    2.441102347060    0.312927461035    0.000000936021
 O    3.474795275128   -0.356336373381   -0.000744729643
 C    2.359623555300    1.773474522425   -0.000498961426
 H    3.283023693602    2.350534781291   -0.000839638203
 H   -0.938553686182    2.113207943431   -0.000249659168
NA   -5.585247266714   -3.058942024215    0.001364331014
