13

 N    0.067253908656    1.715101862263   -0.000081335847
 C    1.240993491739    2.442474053773   -0.000393815017
 H    1.123276631676    3.527792512817   -0.000509662576
 C    0.021477935576    0.321890070396   -0.000466390416
 O   -1.030110232980   -0.312213243445   -0.000123023312
 N    1.281918476717   -0.261579985736   -0.000049487094
 H    1.291734273840   -1.279865097602   -0.000076791189
 C    2.543172765950    0.374475501227   -0.000032392258
 O    3.576865694018   -0.294788333189   -0.000778057922
 C    2.461693974190    1.835022562617   -0.000532289705
 H    3.385094112492    2.412082821483   -0.000872966482
 H   -0.836483267292    2.174755983623   -0.000282987447
NA   -6.082628122899   -3.358860622179    0.001526737010
