13

 N    0.125579862307    1.750272170944   -0.000100380578
 C    1.299319445390    2.477644362454   -0.000412859748
 H    1.181602585327    3.562962821498   -0.000528707307
 C    0.079803889227    0.357060379077   -0.000485435147
 O   -0.971784279329   -0.277042934764   -0.000142068043
 N    1.340244430368   -0.226409677055   -0.000068531825
 H    1.350060227491   -1.244694788921   -0.000095835920
 C    2.601498719601    0.409645809908   -0.000051436989
 O    3.635191647669   -0.259618024508   -0.000797102653
 C    2.520019927841    1.870192871298   -0.000551334436
 H    3.443420066143    2.447253130164   -0.000892011213
 H   -0.778157313641    2.209926292304   -0.000302032178
NA   -6.366845755005   -3.530242678158    0.001619540436
