13

 N    0.140161350720    1.759064748114   -0.000105141761
 C    1.313900933803    2.486436939624   -0.000417620931
 H    1.196184073740    3.571755398668   -0.000533468490
 C    0.094385377640    0.365852956247   -0.000490196330
 O   -0.957202790916   -0.268250357594   -0.000146829226
 N    1.354825918781   -0.217617099885   -0.000073293008
 H    1.364641715904   -1.235902211751   -0.000100597103
 C    2.616080208014    0.418438387078   -0.000056198172
 O    3.649773136082   -0.250825447338   -0.000801863836
 C    2.534601416254    1.878985448468   -0.000556095619
 H    3.458001554556    2.456045707334   -0.000896772396
 H   -0.763575825228    2.218718869474   -0.000306793361
NA   -6.437900163031   -3.573088192152    0.001642741293
