13

 N    0.169324327546    1.776649902455   -0.000114664127
 C    1.343063910629    2.504022093965   -0.000427143297
 H    1.225347050566    3.589340553009   -0.000542990856
 C    0.123548354466    0.383438110588   -0.000499718696
 O   -0.928039814090   -0.250665203253   -0.000156351592
 N    1.383988895607   -0.200031945544   -0.000082815374
 H    1.393804692730   -1.218317057410   -0.000110119469
 C    2.645243184840    0.436023541419   -0.000065720538
 O    3.678936112908   -0.233240292997   -0.000811386202
 C    2.563764393080    1.896570602809   -0.000565617985
 H    3.487164531382    2.473630861675   -0.000906294762
 H   -0.734412848402    2.236304023815   -0.000316315727
NA   -6.580008979084   -3.658779220142    0.001689143006
