13

 N    0.183905815959    1.785442479625   -0.000119425309
 C    1.357645399042    2.512814671135   -0.000431904479
 H    1.239928538979    3.598133130179   -0.000547752038
 C    0.138129842879    0.392230687758   -0.000504479878
 O   -0.913458325677   -0.241872626083   -0.000161112774
 N    1.398570384020   -0.191239368374   -0.000087576556
 H    1.408386181143   -1.209524480240   -0.000114880651
 C    2.659824673253    0.444816118589   -0.000070481720
 O    3.693517601321   -0.224447715827   -0.000816147384
 C    2.578345881493    1.905363179979   -0.000570379167
 H    3.501746019795    2.482423438845   -0.000911055944
 H   -0.719831359989    2.245096600985   -0.000321076909
NA   -6.651063387110   -3.701624734137    0.001712343863
