13

 N    0.227650281197    1.811820211135   -0.000133708858
 C    1.401389864280    2.539192402645   -0.000446188028
 H    1.283673004217    3.624510861689   -0.000562035587
 C    0.181874308117    0.418608419268   -0.000518763427
 O   -0.869713860439   -0.215494894573   -0.000175396323
 N    1.442314849258   -0.164861636864   -0.000101860105
 H    1.452130646381   -1.183146748730   -0.000129164200
 C    2.703569138491    0.471193850099   -0.000084765269
 O    3.737262066559   -0.198069984317   -0.000830430933
 C    2.622090346731    1.931740911489   -0.000584662716
 H    3.545490485033    2.508801170355   -0.000925339493
 H   -0.676086894751    2.271474332495   -0.000335360458
NA   -6.864226611190   -3.830161276121    0.001781946433
