13

 N    0.256813258023    1.829405365476   -0.000143231223
 C    1.430552841106    2.556777556986   -0.000455710393
 H    1.312835981043    3.642096016030   -0.000571557952
 C    0.211037284943    0.436193573609   -0.000528285792
 O   -0.840550883613   -0.197909740232   -0.000184918688
 N    1.471477826084   -0.147276482523   -0.000111382470
 H    1.481293623207   -1.165561594389   -0.000138686565
 C    2.732732115317    0.488779004440   -0.000094287634
 O    3.766425043385   -0.180484829976   -0.000839953298
 C    2.651253323557    1.949326065830   -0.000594185081
 H    3.574653461859    2.526386324696   -0.000934861858
 H   -0.646923917925    2.289059486836   -0.000344882823
NA   -7.006335427243   -3.915852304110    0.001828348146
