13

 N    0.271394746436    1.838197942646   -0.000147992406
 C    1.445134329519    2.565570134156   -0.000460471576
 H    1.327417469456    3.650888593200   -0.000576319135
 C    0.225618773356    0.444986150779   -0.000533046975
 O   -0.825969395200   -0.189117163062   -0.000189679871
 N    1.486059314497   -0.138483905353   -0.000116143653
 H    1.495875111620   -1.156769017219   -0.000143447748
 C    2.747313603730    0.497571581610   -0.000099048817
 O    3.781006531798   -0.171692252806   -0.000844714481
 C    2.665834811970    1.958118643000   -0.000598946264
 H    3.589234950272    2.535178901866   -0.000939623041
 H   -0.632342429512    2.297852064006   -0.000349644006
NA   -7.077389835269   -3.958697818105    0.001851549002
