13

 N    0.285976234849    1.846990519816   -0.000152753589
 C    1.459715817932    2.574362711326   -0.000465232759
 H    1.341998957869    3.659681170370   -0.000581080318
 C    0.240200261769    0.453778727949   -0.000537808158
 O   -0.811387906787   -0.180324585892   -0.000194441054
 N    1.500640802910   -0.129691328183   -0.000120904836
 H    1.510456600033   -1.147976440049   -0.000148208931
 C    2.761895092143    0.506364158780   -0.000103810000
 O    3.795588020211   -0.162899675636   -0.000849475664
 C    2.680416300383    1.966911220170   -0.000603707447
 H    3.603816438685    2.543971479036   -0.000944384224
 H   -0.617760941099    2.306644641176   -0.000354405189
NA   -7.148444243295   -4.001543332100    0.001874749859
