13

 N    0.344302188500    1.882160828497   -0.000171798320
 C    1.518041771583    2.609533020007   -0.000484277490
 H    1.400324911520    3.694851479051   -0.000600125049
 C    0.298526215420    0.488949036630   -0.000556852889
 O   -0.753061953136   -0.145154277211   -0.000213485785
 N    1.558966756561   -0.094521019502   -0.000139949567
 H    1.568782553684   -1.112806131368   -0.000167253662
 C    2.820221045794    0.541534467461   -0.000122854731
 O    3.853913973862   -0.127729366955   -0.000868520395
 C    2.738742254034    2.002081528851   -0.000622752178
 H    3.662142392336    2.579141787717   -0.000963428955
 H   -0.559434987448    2.341814949857   -0.000373449920
NA   -7.432661875401   -4.172925388079    0.001967553285
