13

 N    0.431791118977    1.934916291519   -0.000200365416
 C    1.605530702060    2.662288483029   -0.000512844586
 H    1.487813841997    3.747606942073   -0.000628692145
 C    0.386015145897    0.541704499652   -0.000585419985
 O   -0.665573022659   -0.092398814189   -0.000242052881
 N    1.646455687038   -0.041765556480   -0.000168516663
 H    1.656271484161   -1.060050668346   -0.000195820758
 C    2.907709976271    0.594289930483   -0.000151421827
 O    3.941402904339   -0.074973903933   -0.000897087491
 C    2.826231184511    2.054836991873   -0.000651319274
 H    3.749631322813    2.631897250739   -0.000991996051
 H   -0.471946056971    2.394570412879   -0.000402017016
NA   -7.858988323560   -4.429998472047    0.002106758425
