13

 N    0.446372607390    1.943708868689   -0.000205126599
 C    1.620112190473    2.671081060199   -0.000517605769
 H    1.502395330410    3.756399519243   -0.000633453328
 C    0.400596634310    0.550497076822   -0.000590181168
 O   -0.650991534246   -0.083606237019   -0.000246814064
 N    1.661037175451   -0.032972979310   -0.000173277846
 H    1.670852972574   -1.051258091176   -0.000200581941
 C    2.922291464684    0.603082507653   -0.000156183010
 O    3.955984392752   -0.066181326763   -0.000901848674
 C    2.840812672924    2.063629569043   -0.000656080457
 H    3.764212811226    2.640689827909   -0.000996757234
 H   -0.457364568558    2.403362990049   -0.000406778199
NA   -7.930042731586   -4.472843986042    0.002129959282
