13

 N    0.475535584216    1.961294023029   -0.000214648964
 C    1.649275167299    2.688666214539   -0.000527128134
 H    1.531558307236    3.773984673583   -0.000642975693
 C    0.429759611136    0.568082231162   -0.000599703533
 O   -0.621828557420   -0.066021082679   -0.000256336429
 N    1.690200152277   -0.015387824970   -0.000182800211
 H    1.700015949400   -1.033672936836   -0.000210104306
 C    2.951454441510    0.620667661993   -0.000165705375
 O    3.985147369578   -0.048596172423   -0.000911371039
 C    2.869975649750    2.081214723383   -0.000665602822
 H    3.793375788052    2.658274982249   -0.001006279599
 H   -0.428201591732    2.420948144389   -0.000416300564
NA   -8.072151547639   -4.558535014031    0.002176360995
