13

 N    0.504698561042    1.978879177370   -0.000224171330
 C    1.678438144125    2.706251368880   -0.000536650500
 H    1.560721284062    3.791569827924   -0.000652498059
 C    0.458922587962    0.585667385503   -0.000609225899
 O   -0.592665580594   -0.048435928338   -0.000265858795
 N    1.719363129103    0.002197329371   -0.000192322577
 H    1.729178926226   -1.016087782495   -0.000219626672
 C    2.980617418336    0.638252816334   -0.000175227741
 O    4.014310346404   -0.031011018082   -0.000920893405
 C    2.899138626576    2.098799877724   -0.000675125188
 H    3.822538764878    2.675860136590   -0.001015801965
 H   -0.399038614906    2.438533298730   -0.000425822930
NA   -8.214260363692   -4.644226042021    0.002222762708
