13

 N    0.548443026280    2.005256908881   -0.000238454878
 C    1.722182609363    2.732629100391   -0.000550934048
 H    1.604465749300    3.817947559435   -0.000666781607
 C    0.502667053200    0.612045117014   -0.000623509447
 O   -0.548921115356   -0.022058196827   -0.000280142343
 N    1.763107594341    0.028575060882   -0.000206606125
 H    1.772923391464   -0.989710050984   -0.000233910220
 C    3.024361883574    0.664630547845   -0.000189511289
 O    4.058054811642   -0.004633286571   -0.000935176953
 C    2.942883091814    2.125177609235   -0.000689408736
 H    3.866283230116    2.702237868101   -0.001030085513
 H   -0.355294149668    2.464911030241   -0.000440106478
NA   -8.427423587771   -4.772762584005    0.002292365278
