13

 N    0.563024514693    2.014049486051   -0.000243216061
 C    1.736764097776    2.741421677561   -0.000555695231
 H    1.619047237713    3.826740136605   -0.000671542790
 C    0.517248541613    0.620837694184   -0.000628270630
 O   -0.534339626943   -0.013265619657   -0.000284903526
 N    1.777689082754    0.037367638052   -0.000211367308
 H    1.787504879877   -0.980917473814   -0.000238671403
 C    3.038943371987    0.673423125015   -0.000194272472
 O    4.072636300055    0.004159290599   -0.000939938136
 C    2.957464580227    2.133970186405   -0.000694169919
 H    3.880864718529    2.711030445271   -0.001034846696
 H   -0.340712661255    2.473703607411   -0.000444867661
NA   -8.498477995798   -4.815608098000    0.002315566135
