13

 N    0.606768979932    2.040427217562   -0.000257499609
 C    1.780508563015    2.767799409072   -0.000569978779
 H    1.662791702952    3.853117868116   -0.000685826338
 C    0.560993006852    0.647215425695   -0.000642554178
 O   -0.490595161704    0.013112111854   -0.000299187074
 N    1.821433547993    0.063745369563   -0.000225650856
 H    1.831249345116   -0.954539742303   -0.000252954951
 C    3.082687837226    0.699800856526   -0.000208556020
 O    4.116380765294    0.030537022110   -0.000954221684
 C    3.001209045466    2.160347917916   -0.000708453467
 H    3.924609183768    2.737408176782   -0.001049130244
 H   -0.296968196016    2.500081338922   -0.000459151209
NA   -8.711641219877   -4.944144639984    0.002385168704
