13

 N    0.621350468345    2.049219794732   -0.000262260792
 C    1.795090051428    2.776591986242   -0.000574739962
 H    1.677373191365    3.861910445286   -0.000690587521
 C    0.575574495265    0.656008002865   -0.000647315361
 O   -0.476013673291    0.021904689024   -0.000303948257
 N    1.836015036406    0.072537946733   -0.000230412039
 H    1.845830833529   -0.945747165133   -0.000257716134
 C    3.097269325639    0.708593433696   -0.000213317203
 O    4.130962253707    0.039329599280   -0.000958982867
 C    3.015790533879    2.169140495086   -0.000713214650
 H    3.939190672181    2.746200753952   -0.001053891427
 H   -0.282386707603    2.508873916092   -0.000463912392
NA   -8.782695627903   -4.986990153979    0.002408369561
