13

 N    0.635931956757    2.058012371902   -0.000267021975
 C    1.809671539840    2.785384563412   -0.000579501145
 H    1.691954679777    3.870703022456   -0.000695348704
 C    0.590155983677    0.664800580035   -0.000652076544
 O   -0.461432184879    0.030697266194   -0.000308709440
 N    1.850596524818    0.081330523903   -0.000235173222
 H    1.860412321941   -0.936954587963   -0.000262477317
 C    3.111850814051    0.717386010866   -0.000218078386
 O    4.145543742119    0.048122176450   -0.000963744050
 C    3.030372022291    2.177933072256   -0.000717975833
 H    3.953772160593    2.754993331122   -0.001058652610
 H   -0.267805219191    2.517666493262   -0.000468673575
NA   -8.853750035930   -5.029835667974    0.002431570418
