25

 C   -6.487252194532   -0.378599689777    0.000000000000
 H   -7.580442194532   -0.442519689777    0.000000000000
 C   -5.849832194532    0.879720310223    0.000000000000
 H   -6.469702194532    1.781660310223    0.000000000000
 C   -5.707602194532   -1.554059689777    0.000000000000
 H   -6.218132194532   -2.522149689777    0.000000000000
 C   -4.447582194532    0.975270310223    0.000000000000
 H   -3.921212194532    1.934930310223    0.000000000000
 C   -4.303772194532   -1.485519689777    0.000000000000
 H   -3.669122194532   -2.377249689777    0.000000000000
 C   -3.632842194532   -0.211709689777    0.000000000000
 O   -2.315892194532   -0.134849689777    0.000000000000
RB    0.480087805468    0.027950310223    0.000000000000
 O    1.877720599024    0.109329511358    0.000000000000
 C    3.194669230976    0.186196649331    0.000000000000
 C    4.009413178868   -1.000786244132    0.000000000000
 H    3.483049790307   -1.960441132143    0.000000000000
 C    5.411661089211   -0.905229727152    0.000000000000
 H    6.031526902671   -1.807171865764    0.000000000000
 C    6.049074727336    0.353095893477    0.000000000000
 H    7.142267780391    0.417012654586    0.000000000000
 C    5.269421947918    1.528556745206    0.000000000000
 H    5.779954078977    2.496647461388    0.000000000000
 C    3.865594148012    1.460016551092    0.000000000000
 H    3.230944635073    2.351740799853    0.000000000000
