25

 C   -9.434850840766   -0.550227905862    0.000000000000
 H  -10.528040840766   -0.614147905862    0.000000000000
 C   -8.797430840766    0.708092094138    0.000000000000
 H   -9.417300840766    1.610032094138    0.000000000000
 C   -8.655200840766   -1.725687905862    0.000000000000
 H   -9.165730840766   -2.693777905862    0.000000000000
 C   -7.395180840766    0.803642094138    0.000000000000
 H   -6.868810840766    1.763302094138    0.000000000000
 C   -7.251370840766   -1.657147905862    0.000000000000
 H   -6.616720840766   -2.548877905862    0.000000000000
 C   -6.580440840766   -0.383337905862    0.000000000000
 O   -5.263490840766   -0.306477905862    0.000000000000
RB   -2.467510840766   -0.143677905862    0.000000000000
 O    7.515580541775    0.437602102249    0.000000000000
 C    8.832529173727    0.514469240222    0.000000000000
 C    9.647273121619   -0.672513653240    0.000000000000
 H    9.120909733059   -1.632168541251    0.000000000000
 C   11.049521031963   -0.576957136261    0.000000000000
 H   11.669386845423   -1.478899274873    0.000000000000
 C   11.686934670087    0.681368484369    0.000000000000
 H   12.780127723143    0.745285245478    0.000000000000
 C   10.907281890670    1.856829336097    0.000000000000
 H   11.417814021728    2.824920052279    0.000000000000
 C    9.503454090763    1.788289141983    0.000000000000
 H    8.868804577825    2.680013390744    0.000000000000
