25

 C   -6.692898611711   -0.390573751365    0.000000000000
 H   -7.786088611711   -0.454493751365    0.000000000000
 C   -6.055478611711    0.867746248635    0.000000000000
 H   -6.675348611711    1.769686248635    0.000000000000
 C   -5.913248611711   -1.566033751365    0.000000000000
 H   -6.423778611711   -2.534123751365    0.000000000000
 C   -4.653228611711    0.963296248635    0.000000000000
 H   -4.126858611711    1.922956248635    0.000000000000
 C   -4.509418611711   -1.497493751365    0.000000000000
 H   -3.874768611711   -2.389223751365    0.000000000000
 C   -3.838488611711   -0.223683751365    0.000000000000
 O   -2.521538611711   -0.146823751365    0.000000000000
RB    0.274441388289    0.015976248635    0.000000000000
 O    2.271059664797    0.132232250257    0.000000000000
 C    3.588008296749    0.209099388230    0.000000000000
 C    4.402752244641   -0.977883505232    0.000000000000
 H    3.876388856081   -1.937538393243    0.000000000000
 C    5.805000154985   -0.882326988253    0.000000000000
 H    6.424865968445   -1.784269126865    0.000000000000
 C    6.442413793109    0.375998632377    0.000000000000
 H    7.535606846165    0.439915393486    0.000000000000
 C    5.662761013692    1.551459484105    0.000000000000
 H    6.173293144750    2.519550200287    0.000000000000
 C    4.258933213785    1.482919289991    0.000000000000
 H    3.624283700847    2.374643538752    0.000000000000
