25

 C   -6.829996223164   -0.398556459090    0.000000000000
 H   -7.923186223164   -0.462476459090    0.000000000000
 C   -6.192576223164    0.859763540910    0.000000000000
 H   -6.812446223164    1.761703540910    0.000000000000
 C   -6.050346223164   -1.574016459090    0.000000000000
 H   -6.560876223164   -2.542106459090    0.000000000000
 C   -4.790326223164    0.955313540910    0.000000000000
 H   -4.263956223164    1.914973540910    0.000000000000
 C   -4.646516223164   -1.505476459090    0.000000000000
 H   -4.011866223164   -2.397206459090    0.000000000000
 C   -3.975586223164   -0.231666459090    0.000000000000
 O   -2.658636223164   -0.154806459090    0.000000000000
RB    0.137343776836    0.007993540910    0.000000000000
 O    2.533285708646    0.147500742857    0.000000000000
 C    3.850234340598    0.224367880830    0.000000000000
 C    4.664978288490   -0.962615012633    0.000000000000
 H    4.138614899930   -1.922269900644    0.000000000000
 C    6.067226198834   -0.867058495653    0.000000000000
 H    6.687092012294   -1.769000634265    0.000000000000
 C    6.704639836958    0.391267124976    0.000000000000
 H    7.797832890014    0.455183886085    0.000000000000
 C    5.924987057540    1.566727976705    0.000000000000
 H    6.435519188599    2.534818692887    0.000000000000
 C    4.521159257634    1.498187782591    0.000000000000
 H    3.886509744696    2.389912031352    0.000000000000
