25

 C   -6.898545028890   -0.402547812952    0.000000000000
 H   -7.991735028890   -0.466467812952    0.000000000000
 C   -6.261125028890    0.855772187048    0.000000000000
 H   -6.880995028890    1.757712187048    0.000000000000
 C   -6.118895028890   -1.578007812952    0.000000000000
 H   -6.629425028890   -2.546097812952    0.000000000000
 C   -4.858875028890    0.951322187048    0.000000000000
 H   -4.332505028890    1.910982187048    0.000000000000
 C   -4.715065028890   -1.509467812952    0.000000000000
 H   -4.080415028890   -2.401197812952    0.000000000000
 C   -4.044135028890   -0.235657812952    0.000000000000
 O   -2.727185028890   -0.158797812952    0.000000000000
RB    0.068794971110    0.004002187048    0.000000000000
 O    2.664398730570    0.155134989157    0.000000000000
 C    3.981347362522    0.232002127130    0.000000000000
 C    4.796091310414   -0.954980766333    0.000000000000
 H    4.269727921854   -1.914635654344    0.000000000000
 C    6.198339220758   -0.859424249353    0.000000000000
 H    6.818205034218   -1.761366387965    0.000000000000
 C    6.835752858882    0.398901371276    0.000000000000
 H    7.928945911938    0.462818132385    0.000000000000
 C    6.056100079465    1.574362223005    0.000000000000
 H    6.566632210524    2.542452939186    0.000000000000
 C    4.652272279558    1.505822028891    0.000000000000
 H    4.017622766620    2.397546277651    0.000000000000
