25

 C   -6.932819431754   -0.404543489883    0.000000000000
 H   -8.026009431754   -0.468463489883    0.000000000000
 C   -6.295399431754    0.853776510117    0.000000000000
 H   -6.915269431754    1.755716510117    0.000000000000
 C   -6.153169431754   -1.580003489883    0.000000000000
 H   -6.663699431754   -2.548093489883    0.000000000000
 C   -4.893149431754    0.949326510117    0.000000000000
 H   -4.366779431754    1.908986510117    0.000000000000
 C   -4.749339431754   -1.511463489883    0.000000000000
 H   -4.114689431754   -2.403193489883    0.000000000000
 C   -4.078409431754   -0.237653489883    0.000000000000
 O   -2.761459431754   -0.160793489883    0.000000000000
RB    0.034520568246    0.002006510117    0.000000000000
 O    2.729955241533    0.158952112307    0.000000000000
 C    4.046903873484    0.235819250280    0.000000000000
 C    4.861647821377   -0.951163643183    0.000000000000
 H    4.335284432816   -1.910818531194    0.000000000000
 C    6.263895731720   -0.855607126204    0.000000000000
 H    6.883761545180   -1.757549264815    0.000000000000
 C    6.901309369845    0.402718494426    0.000000000000
 H    7.994502422900    0.466635255535    0.000000000000
 C    6.121656590427    1.578179346155    0.000000000000
 H    6.632188721486    2.546270062336    0.000000000000
 C    4.717828790520    1.509639152041    0.000000000000
 H    4.083179277582    2.401363400801    0.000000000000
