25

 C   -6.967093834617   -0.406539166814    0.000000000000
 H   -8.060283834617   -0.470459166814    0.000000000000
 C   -6.329673834617    0.851780833186    0.000000000000
 H   -6.949543834617    1.753720833186    0.000000000000
 C   -6.187443834617   -1.581999166814    0.000000000000
 H   -6.697973834617   -2.550089166814    0.000000000000
 C   -4.927423834617    0.947330833186    0.000000000000
 H   -4.401053834617    1.906990833186    0.000000000000
 C   -4.783613834617   -1.513459166814    0.000000000000
 H   -4.148963834617   -2.405189166814    0.000000000000
 C   -4.112683834617   -0.239649166814    0.000000000000
 O   -2.795733834617   -0.162789166814    0.000000000000
RB    0.000246165383    0.000010833186    0.000000000000
 O    2.795511752495    0.162769235457    0.000000000000
 C    4.112460384447    0.239636373430    0.000000000000
 C    4.927204332339   -0.947346520033    0.000000000000
 H    4.400840943779   -1.907001408044    0.000000000000
 C    6.329452242682   -0.851790003054    0.000000000000
 H    6.949318056143   -1.753732141665    0.000000000000
 C    6.966865880807    0.406535617576    0.000000000000
 H    8.060058933863    0.470452378685    0.000000000000
 C    6.187213101389    1.581996469305    0.000000000000
 H    6.697745232448    2.550087185486    0.000000000000
 C    4.783385301483    1.513456275191    0.000000000000
 H    4.148735788545    2.405180523951    0.000000000000
