25

 C   -7.172740251796   -0.418513228402    0.000000000000
 H   -8.265930251796   -0.482433228402    0.000000000000
 C   -6.535320251796    0.839806771598    0.000000000000
 H   -7.155190251796    1.741746771598    0.000000000000
 C   -6.393090251796   -1.593973228402    0.000000000000
 H   -6.903620251796   -2.562063228402    0.000000000000
 C   -5.133070251796    0.935356771598    0.000000000000
 H   -4.606700251796    1.895016771598    0.000000000000
 C   -4.989260251796   -1.525433228402    0.000000000000
 H   -4.354610251796   -2.417163228402    0.000000000000
 C   -4.318330251796   -0.251623228402    0.000000000000
 O   -3.001380251796   -0.174763228402    0.000000000000
RB   -0.205400251796   -0.011963228402    0.000000000000
 O    3.188850818268    0.185671974356    0.000000000000
 C    4.505799450220    0.262539112329    0.000000000000
 C    5.320543398112   -0.924443781134    0.000000000000
 H    4.794180009552   -1.884098669145    0.000000000000
 C    6.722791308456   -0.828887264154    0.000000000000
 H    7.342657121916   -1.730829402766    0.000000000000
 C    7.360204946580    0.429438356475    0.000000000000
 H    8.453397999636    0.493355117584    0.000000000000
 C    6.580552167163    1.604899208204    0.000000000000
 H    7.091084298221    2.572989924386    0.000000000000
 C    5.176724367256    1.536359014090    0.000000000000
 H    4.542074854318    2.428083262851    0.000000000000
