25

 C   -7.207014654659   -0.420508905333    0.000000000000
 H   -8.300204654659   -0.484428905333    0.000000000000
 C   -6.569594654659    0.837811094667    0.000000000000
 H   -7.189464654659    1.739751094667    0.000000000000
 C   -6.427364654659   -1.595968905333    0.000000000000
 H   -6.937894654659   -2.564058905333    0.000000000000
 C   -5.167344654659    0.933361094667    0.000000000000
 H   -4.640974654659    1.893021094667    0.000000000000
 C   -5.023534654659   -1.527428905333    0.000000000000
 H   -4.388884654659   -2.419158905333    0.000000000000
 C   -4.352604654659   -0.253618905333    0.000000000000
 O   -3.035654654659   -0.176758905333    0.000000000000
RB   -0.239674654659   -0.013958905333    0.000000000000
 O    3.254407329230    0.189489097506    0.000000000000
 C    4.571355961182    0.266356235479    0.000000000000
 C    5.386099909074   -0.920626657984    0.000000000000
 H    4.859736520514   -1.880281545995    0.000000000000
 C    6.788347819418   -0.825070141004    0.000000000000
 H    7.408213632878   -1.727012279616    0.000000000000
 C    7.425761457542    0.433255479625    0.000000000000
 H    8.518954510598    0.497172240734    0.000000000000
 C    6.646108678125    1.608716331354    0.000000000000
 H    7.156640809184    2.576807047535    0.000000000000
 C    5.242280878218    1.540176137240    0.000000000000
 H    4.607631365280    2.431900386000    0.000000000000
