25

 C   -7.378386668975   -0.430487289989    0.000000000000
 H   -8.471576668975   -0.494407289989    0.000000000000
 C   -6.740966668975    0.827832710011    0.000000000000
 H   -7.360836668975    1.729772710011    0.000000000000
 C   -6.598736668975   -1.605947289989    0.000000000000
 H   -7.109266668975   -2.574037289989    0.000000000000
 C   -5.338716668975    0.923382710011    0.000000000000
 H   -4.812346668975    1.883042710011    0.000000000000
 C   -5.194906668975   -1.537407289989    0.000000000000
 H   -4.560256668975   -2.429137289989    0.000000000000
 C   -4.523976668975   -0.263597289989    0.000000000000
 O   -3.207026668975   -0.186737289989    0.000000000000
RB   -0.411046668975   -0.023937289989    0.000000000000
 O    3.582189884042    0.208574713255    0.000000000000
 C    4.899138515993    0.285441851228    0.000000000000
 C    5.713882463886   -0.901541042234    0.000000000000
 H    5.187519075325   -1.861195930245    0.000000000000
 C    7.116130374229   -0.805984525255    0.000000000000
 H    7.735996187689   -1.707926663867    0.000000000000
 C    7.753544012354    0.452341095375    0.000000000000
 H    8.846737065409    0.516257856484    0.000000000000
 C    6.973891232936    1.627801947103    0.000000000000
 H    7.484423363995    2.595892663285    0.000000000000
 C    5.570063433029    1.559261752989    0.000000000000
 H    4.935413920091    2.450986001750    0.000000000000
