25

 C   -7.412661071838   -0.432482966920    0.000000000000
 H   -8.505851071838   -0.496402966920    0.000000000000
 C   -6.775241071838    0.825837033080    0.000000000000
 H   -7.395111071838    1.727777033080    0.000000000000
 C   -6.633011071838   -1.607942966920    0.000000000000
 H   -7.143541071838   -2.576032966920    0.000000000000
 C   -5.372991071838    0.921387033080    0.000000000000
 H   -4.846621071838    1.881047033080    0.000000000000
 C   -5.229181071838   -1.539402966920    0.000000000000
 H   -4.594531071838   -2.431132966920    0.000000000000
 C   -4.558251071838   -0.265592966920    0.000000000000
 O   -3.241301071838   -0.188732966920    0.000000000000
RB   -0.445321071838   -0.025932966920    0.000000000000
 O    3.647746395004    0.212391836405    0.000000000000
 C    4.964695026956    0.289258974378    0.000000000000
 C    5.779438974848   -0.897723919084    0.000000000000
 H    5.253075586287   -1.857378807095    0.000000000000
 C    7.181686885191   -0.802167402105    0.000000000000
 H    7.801552698651   -1.704109540717    0.000000000000
 C    7.819100523316    0.456158218525    0.000000000000
 H    8.912293576372    0.520074979634    0.000000000000
 C    7.039447743898    1.631619070253    0.000000000000
 H    7.549979874957    2.599709786435    0.000000000000
 C    5.635619943992    1.563078876139    0.000000000000
 H    5.000970431054    2.454803124900    0.000000000000
