25

 C   -7.446935474701   -0.434478643851    0.000000000000
 H   -8.540125474701   -0.498398643851    0.000000000000
 C   -6.809515474701    0.823841356149    0.000000000000
 H   -7.429385474701    1.725781356149    0.000000000000
 C   -6.667285474701   -1.609938643851    0.000000000000
 H   -7.177815474701   -2.578028643851    0.000000000000
 C   -5.407265474701    0.919391356149    0.000000000000
 H   -4.880895474701    1.879051356149    0.000000000000
 C   -5.263455474701   -1.541398643851    0.000000000000
 H   -4.628805474701   -2.433128643851    0.000000000000
 C   -4.592525474701   -0.267588643851    0.000000000000
 O   -3.275575474701   -0.190728643851    0.000000000000
RB   -0.479595474701   -0.027928643851    0.000000000000
 O    3.713302905966    0.216208959555    0.000000000000
 C    5.030251537918    0.293076097528    0.000000000000
 C    5.844995485810   -0.893906795935    0.000000000000
 H    5.318632097250   -1.853561683945    0.000000000000
 C    7.247243396154   -0.798350278955    0.000000000000
 H    7.867109209614   -1.700292417567    0.000000000000
 C    7.884657034278    0.459975341675    0.000000000000
 H    8.977850087334    0.523892102784    0.000000000000
 C    7.105004254861    1.635436193403    0.000000000000
 H    7.615536385919    2.603526909585    0.000000000000
 C    5.701176454954    1.566895999289    0.000000000000
 H    5.066526942016    2.458620248050    0.000000000000
