25

 C   -7.515484280428   -0.438469997714    0.000000000000
 H   -8.608674280428   -0.502389997714    0.000000000000
 C   -6.878064280428    0.819850002286    0.000000000000
 H   -7.497934280428    1.721790002286    0.000000000000
 C   -6.735834280428   -1.613929997714    0.000000000000
 H   -7.246364280428   -2.582019997714    0.000000000000
 C   -5.475814280428    0.915400002286    0.000000000000
 H   -4.949444280428    1.875060002286    0.000000000000
 C   -5.332004280428   -1.545389997714    0.000000000000
 H   -4.697354280428   -2.437119997714    0.000000000000
 C   -4.661074280428   -0.271579997714    0.000000000000
 O   -3.344124280428   -0.194719997714    0.000000000000
RB   -0.548144280428   -0.031919997714    0.000000000000
 O    3.844415927891    0.223843205855    0.000000000000
 C    5.161364559842    0.300710343828    0.000000000000
 C    5.976108507735   -0.886272549635    0.000000000000
 H    5.449745119174   -1.845927437646    0.000000000000
 C    7.378356418078   -0.790716032655    0.000000000000
 H    7.998222231538   -1.692658171267    0.000000000000
 C    8.015770056202    0.467609587974    0.000000000000
 H    9.108963109258    0.531526349083    0.000000000000
 C    7.236117276785    1.643070439703    0.000000000000
 H    7.746649407844    2.611161155885    0.000000000000
 C    5.832289476878    1.574530245589    0.000000000000
 H    5.197639963940    2.466254494350    0.000000000000
