25

 C   -7.549758683291   -0.440465674645    0.000000000000
 H   -8.642948683291   -0.504385674645    0.000000000000
 C   -6.912338683291    0.817854325355    0.000000000000
 H   -7.532208683291    1.719794325355    0.000000000000
 C   -6.770108683291   -1.615925674645    0.000000000000
 H   -7.280638683291   -2.584015674645    0.000000000000
 C   -5.510088683291    0.913404325355    0.000000000000
 H   -4.983718683291    1.873064325355    0.000000000000
 C   -5.366278683291   -1.547385674645    0.000000000000
 H   -4.731628683291   -2.439115674645    0.000000000000
 C   -4.695348683291   -0.273575674645    0.000000000000
 O   -3.378398683291   -0.196715674645    0.000000000000
RB   -0.582418683291   -0.033915674645    0.000000000000
 O    3.909972438853    0.227660329005    0.000000000000
 C    5.226921070805    0.304527466978    0.000000000000
 C    6.041665018697   -0.882455426485    0.000000000000
 H    5.515301630136   -1.842110314496    0.000000000000
 C    7.443912929040   -0.786898909505    0.000000000000
 H    8.063778742500   -1.688841048117    0.000000000000
 C    8.081326567165    0.471426711124    0.000000000000
 H    9.174519620220    0.535343472233    0.000000000000
 C    7.301673787747    1.646887562853    0.000000000000
 H    7.812205918806    2.614978279034    0.000000000000
 C    5.897845987841    1.578347368739    0.000000000000
 H    5.263196474903    2.470071617499    0.000000000000
