25

 C   -7.686856294744   -0.448448382370    0.000000000000
 H   -8.780046294744   -0.512368382370    0.000000000000
 C   -7.049436294744    0.809871617630    0.000000000000
 H   -7.669306294744    1.711811617630    0.000000000000
 C   -6.907206294744   -1.623908382370    0.000000000000
 H   -7.417736294744   -2.591998382370    0.000000000000
 C   -5.647186294744    0.905421617630    0.000000000000
 H   -5.120816294744    1.865081617630    0.000000000000
 C   -5.503376294744   -1.555368382370    0.000000000000
 H   -4.868726294744   -2.447098382370    0.000000000000
 C   -4.832446294744   -0.281558382370    0.000000000000
 O   -3.515496294744   -0.204698382370    0.000000000000
RB   -0.719516294744   -0.041898382370    0.000000000000
 O    4.172198482702    0.242928821604    0.000000000000
 C    5.489147114653    0.319795959577    0.000000000000
 C    6.303891062546   -0.867186933885    0.000000000000
 H    5.777527673985   -1.826841821896    0.000000000000
 C    7.706138972889   -0.771630416906    0.000000000000
 H    8.326004786349   -1.673572555518    0.000000000000
 C    8.343552611014    0.486695203724    0.000000000000
 H    9.436745664069    0.550611964833    0.000000000000
 C    7.563899831596    1.662156055453    0.000000000000
 H    8.074431962655    2.630246771634    0.000000000000
 C    6.160072031689    1.593615861339    0.000000000000
 H    5.525422518751    2.485340110099    0.000000000000
