25

 C   -7.755405100470   -0.452439736232    0.000000000000
 H   -8.848595100470   -0.516359736232    0.000000000000
 C   -7.117985100470    0.805880263768    0.000000000000
 H   -7.737855100470    1.707820263768    0.000000000000
 C   -6.975755100470   -1.627899736232    0.000000000000
 H   -7.486285100470   -2.595989736232    0.000000000000
 C   -5.715735100470    0.901430263768    0.000000000000
 H   -5.189365100470    1.861090263768    0.000000000000
 C   -5.571925100470   -1.559359736232    0.000000000000
 H   -4.937275100470   -2.451089736232    0.000000000000
 C   -4.900995100470   -0.285549736232    0.000000000000
 O   -3.584045100470   -0.208689736232    0.000000000000
RB   -0.788065100470   -0.045889736232    0.000000000000
 O    4.303311504626    0.250563067904    0.000000000000
 C    5.620260136578    0.327430205877    0.000000000000
 C    6.435004084470   -0.859552687585    0.000000000000
 H    5.908640695910   -1.819207575596    0.000000000000
 C    7.837251994814   -0.763996170606    0.000000000000
 H    8.457117808274   -1.665938309218    0.000000000000
 C    8.474665632938    0.494329450024    0.000000000000
 H    9.567858685994    0.558246211133    0.000000000000
 C    7.695012853521    1.669790301752    0.000000000000
 H    8.205544984579    2.637881017934    0.000000000000
 C    6.291185053614    1.601250107638    0.000000000000
 H    5.656535540676    2.492974356399    0.000000000000
