25

 C   -7.858228309060   -0.458426767026    0.000000000000
 H   -8.951418309060   -0.522346767026    0.000000000000
 C   -7.220808309060    0.799893232974    0.000000000000
 H   -7.840678309060    1.701833232974    0.000000000000
 C   -7.078578309060   -1.633886767026    0.000000000000
 H   -7.589108309060   -2.601976767026    0.000000000000
 C   -5.818558309060    0.895443232974    0.000000000000
 H   -5.292188309060    1.855103232974    0.000000000000
 C   -5.674748309060   -1.565346767026    0.000000000000
 H   -5.040098309060   -2.457076767026    0.000000000000
 C   -5.003818309060   -0.291536767026    0.000000000000
 O   -3.686868309060   -0.214676767026    0.000000000000
RB   -0.890888309060   -0.051876767026    0.000000000000
 O    4.499981037513    0.262014437354    0.000000000000
 C    5.816929669465    0.338881575327    0.000000000000
 C    6.631673617357   -0.848101318136    0.000000000000
 H    6.105310228796   -1.807756206147    0.000000000000
 C    8.033921527700   -0.752544801156    0.000000000000
 H    8.653787341160   -1.654486939768    0.000000000000
 C    8.671335165825    0.505780819473    0.000000000000
 H    9.764528218880    0.569697580582    0.000000000000
 C    7.891682386407    1.681241671202    0.000000000000
 H    8.402214517466    2.649332387383    0.000000000000
 C    6.487854586501    1.612701477088    0.000000000000
 H    5.853205073563    2.504425725849    0.000000000000
