25

 C   -7.892502711923   -0.460422443957    0.000000000000
 H   -8.985692711923   -0.524342443957    0.000000000000
 C   -7.255082711923    0.797897556043    0.000000000000
 H   -7.874952711923    1.699837556043    0.000000000000
 C   -7.112852711923   -1.635882443957    0.000000000000
 H   -7.623382711923   -2.603972443957    0.000000000000
 C   -5.852832711923    0.893447556043    0.000000000000
 H   -5.326462711923    1.853107556043    0.000000000000
 C   -5.709022711923   -1.567342443957    0.000000000000
 H   -5.074372711923   -2.459072443957    0.000000000000
 C   -5.038092711923   -0.293532443957    0.000000000000
 O   -3.721142711923   -0.216672443957    0.000000000000
RB   -0.925162711923   -0.053872443957    0.000000000000
 O    4.565537548475    0.265831560504    0.000000000000
 C    5.882486180427    0.342698698477    0.000000000000
 C    6.697230128319   -0.844284194986    0.000000000000
 H    6.170866739759   -1.803939082997    0.000000000000
 C    8.099478038663   -0.748727678006    0.000000000000
 H    8.719343852123   -1.650669816618    0.000000000000
 C    8.736891676787    0.509597942623    0.000000000000
 H    9.830084729843    0.573514703732    0.000000000000
 C    7.957238897370    1.685058794352    0.000000000000
 H    8.467771028428    2.653149510533    0.000000000000
 C    6.553411097463    1.616518600238    0.000000000000
 H    5.918761584525    2.508242848998    0.000000000000
