25

 C   -7.926777114786   -0.462418120888    0.000000000000
 H   -9.019967114786   -0.526338120888    0.000000000000
 C   -7.289357114786    0.795901879112    0.000000000000
 H   -7.909227114786    1.697841879112    0.000000000000
 C   -7.147127114786   -1.637878120888    0.000000000000
 H   -7.657657114786   -2.605968120888    0.000000000000
 C   -5.887107114786    0.891451879112    0.000000000000
 H   -5.360737114786    1.851111879112    0.000000000000
 C   -5.743297114786   -1.569338120888    0.000000000000
 H   -5.108647114786   -2.461068120888    0.000000000000
 C   -5.072367114786   -0.295528120888    0.000000000000
 O   -3.755417114786   -0.218668120888    0.000000000000
RB   -0.959437114786   -0.055868120888    0.000000000000
 O    4.631094059437    0.269648683654    0.000000000000
 C    5.948042691389    0.346515821627    0.000000000000
 C    6.762786639281   -0.840467071836    0.000000000000
 H    6.236423250721   -1.800121959847    0.000000000000
 C    8.165034549625   -0.744910554857    0.000000000000
 H    8.784900363085   -1.646852693468    0.000000000000
 C    8.802448187749    0.513415065773    0.000000000000
 H    9.895641240805    0.577331826882    0.000000000000
 C    8.022795408332    1.688875917502    0.000000000000
 H    8.533327539390    2.656966633683    0.000000000000
 C    6.618967608425    1.620335723388    0.000000000000
 H    5.984318095487    2.512059972148    0.000000000000
