25

 C   -8.029600323375   -0.468405151682    0.000000000000
 H   -9.122790323375   -0.532325151682    0.000000000000
 C   -7.392180323375    0.789914848318    0.000000000000
 H   -8.012050323375    1.691854848318    0.000000000000
 C   -7.249950323375   -1.643865151682    0.000000000000
 H   -7.760480323375   -2.611955151682    0.000000000000
 C   -5.989930323375    0.885464848318    0.000000000000
 H   -5.463560323375    1.845124848318    0.000000000000
 C   -5.846120323375   -1.575325151682    0.000000000000
 H   -5.211470323375   -2.467055151682    0.000000000000
 C   -5.175190323375   -0.301515151682    0.000000000000
 O   -3.858240323375   -0.224655151682    0.000000000000
RB   -1.062260323375   -0.061855151682    0.000000000000
 O    4.827763592324    0.281100053103    0.000000000000
 C    6.144712224276    0.357967191076    0.000000000000
 C    6.959456172168   -0.829015702386    0.000000000000
 H    6.433092783608   -1.788670590397    0.000000000000
 C    8.361704082511   -0.733459185407    0.000000000000
 H    8.981569895972   -1.635401324019    0.000000000000
 C    8.999117720636    0.524866435223    0.000000000000
 H   10.092310773692    0.588783196332    0.000000000000
 C    8.219464941218    1.700327286951    0.000000000000
 H    8.729997072277    2.668418003133    0.000000000000
 C    6.815637141312    1.631787092837    0.000000000000
 H    6.180987628374    2.523511341598    0.000000000000
