25

 C   -8.063874726239   -0.470400828613    0.000000000000
 H   -9.157064726239   -0.534320828613    0.000000000000
 C   -7.426454726239    0.787919171387    0.000000000000
 H   -8.046324726239    1.689859171387    0.000000000000
 C   -7.284224726239   -1.645860828613    0.000000000000
 H   -7.794754726239   -2.613950828613    0.000000000000
 C   -6.024204726239    0.883469171387    0.000000000000
 H   -5.497834726239    1.843129171387    0.000000000000
 C   -5.880394726239   -1.577320828613    0.000000000000
 H   -5.245744726239   -2.469050828613    0.000000000000
 C   -5.209464726239   -0.303510828613    0.000000000000
 O   -3.892514726239   -0.226650828613    0.000000000000
RB   -1.096534726239   -0.063850828613    0.000000000000
 O    4.893320103286    0.284917176253    0.000000000000
 C    6.210268735238    0.361784314226    0.000000000000
 C    7.025012683130   -0.825198579236    0.000000000000
 H    6.498649294570   -1.784853467247    0.000000000000
 C    8.427260593474   -0.729642062257    0.000000000000
 H    9.047126406934   -1.631584200869    0.000000000000
 C    9.064674231598    0.528683558373    0.000000000000
 H   10.157867284654    0.592600319482    0.000000000000
 C    8.285021452181    1.704144410101    0.000000000000
 H    8.795553583239    2.672235126283    0.000000000000
 C    6.881193652274    1.635604215987    0.000000000000
 H    6.246544139336    2.527328464748    0.000000000000
