25

 C   -8.098149129102   -0.472396505544    0.000000000000
 H   -9.191339129102   -0.536316505544    0.000000000000
 C   -7.460729129102    0.785923494456    0.000000000000
 H   -8.080599129102    1.687863494456    0.000000000000
 C   -7.318499129102   -1.647856505544    0.000000000000
 H   -7.829029129102   -2.615946505544    0.000000000000
 C   -6.058479129102    0.881473494456    0.000000000000
 H   -5.532109129102    1.841133494456    0.000000000000
 C   -5.914669129102   -1.579316505544    0.000000000000
 H   -5.280019129102   -2.471046505544    0.000000000000
 C   -5.243739129102   -0.305506505544    0.000000000000
 O   -3.926789129102   -0.228646505544    0.000000000000
RB   -1.130809129102   -0.065846505544    0.000000000000
 O    4.958876614248    0.288734299403    0.000000000000
 C    6.275825246200    0.365601437376    0.000000000000
 C    7.090569194092   -0.821381456086    0.000000000000
 H    6.564205805532   -1.781036344097    0.000000000000
 C    8.492817104436   -0.725824939107    0.000000000000
 H    9.112682917896   -1.627767077719    0.000000000000
 C    9.130230742560    0.532500681523    0.000000000000
 H   10.223423795616    0.596417442632    0.000000000000
 C    8.350577963143    1.707961533251    0.000000000000
 H    8.861110094201    2.676052249433    0.000000000000
 C    6.946750163236    1.639421339137    0.000000000000
 H    6.312100650298    2.531145587898    0.000000000000
