25

 C   -8.166697934828   -0.476387859407    0.000000000000
 H   -9.259887934828   -0.540307859407    0.000000000000
 C   -7.529277934828    0.781932140593    0.000000000000
 H   -8.149147934828    1.683872140593    0.000000000000
 C   -7.387047934828   -1.651847859407    0.000000000000
 H   -7.897577934828   -2.619937859407    0.000000000000
 C   -6.127027934828    0.877482140593    0.000000000000
 H   -5.600657934828    1.837142140593    0.000000000000
 C   -5.983217934828   -1.583307859407    0.000000000000
 H   -5.348567934828   -2.475037859407    0.000000000000
 C   -5.312287934828   -0.309497859407    0.000000000000
 O   -3.995337934828   -0.232637859407    0.000000000000
RB   -1.199357934828   -0.069837859407    0.000000000000
 O    5.089989636173    0.296368545703    0.000000000000
 C    6.406938268125    0.373235683676    0.000000000000
 C    7.221682216017   -0.813747209787    0.000000000000
 H    6.695318827456   -1.773402097798    0.000000000000
 C    8.623930126360   -0.718190692807    0.000000000000
 H    9.243795939820   -1.620132831419    0.000000000000
 C    9.261343764485    0.540134927822    0.000000000000
 H   10.354536817540    0.604051688931    0.000000000000
 C    8.481690985067    1.715595779551    0.000000000000
 H    8.992223116126    2.683686495733    0.000000000000
 C    7.077863185161    1.647055585437    0.000000000000
 H    6.443213672223    2.538779834198    0.000000000000
