25

 C   -8.269521143418   -0.482374890200    0.000000000000
 H   -9.362711143418   -0.546294890200    0.000000000000
 C   -7.632101143418    0.775945109800    0.000000000000
 H   -8.251971143418    1.677885109800    0.000000000000
 C   -7.489871143418   -1.657834890200    0.000000000000
 H   -8.000401143418   -2.625924890200    0.000000000000
 C   -6.229851143418    0.871495109800    0.000000000000
 H   -5.703481143418    1.831155109800    0.000000000000
 C   -6.086041143418   -1.589294890200    0.000000000000
 H   -5.451391143418   -2.481024890200    0.000000000000
 C   -5.415111143418   -0.315484890200    0.000000000000
 O   -4.098161143418   -0.238624890200    0.000000000000
RB   -1.302181143418   -0.075824890200    0.000000000000
 O    5.286659169059    0.307819915153    0.000000000000
 C    6.603607801011    0.384687053126    0.000000000000
 C    7.418351748904   -0.802295840337    0.000000000000
 H    6.891988360343   -1.761950728348    0.000000000000
 C    8.820599659247   -0.706739323358    0.000000000000
 H    9.440465472707   -1.608681461969    0.000000000000
 C    9.458013297371    0.551586297272    0.000000000000
 H   10.551206350427    0.615503058381    0.000000000000
 C    8.678360517954    1.727047149001    0.000000000000
 H    9.188892649013    2.695137865182    0.000000000000
 C    7.274532718047    1.658506954887    0.000000000000
 H    6.639883205109    2.550231203647    0.000000000000
