25

 C   -8.440893157734   -0.492353274856    0.000000000000
 H   -9.534083157734   -0.556273274856    0.000000000000
 C   -7.803473157734    0.765966725144    0.000000000000
 H   -8.423343157734    1.667906725144    0.000000000000
 C   -7.661243157734   -1.667813274856    0.000000000000
 H   -8.171773157734   -2.635903274856    0.000000000000
 C   -6.401223157734    0.861516725144    0.000000000000
 H   -5.874853157734    1.821176725144    0.000000000000
 C   -6.257413157734   -1.599273274856    0.000000000000
 H   -5.622763157734   -2.491003274856    0.000000000000
 C   -5.586483157734   -0.325463274856    0.000000000000
 O   -4.269533157734   -0.248603274856    0.000000000000
RB   -1.473553157734   -0.085803274856    0.000000000000
 O    5.614441723871    0.326905530902    0.000000000000
 C    6.931390355822    0.403772668875    0.000000000000
 C    7.746134303715   -0.783210224587    0.000000000000
 H    7.219770915154   -1.742865112598    0.000000000000
 C    9.148382214058   -0.687653707608    0.000000000000
 H    9.768248027518   -1.589595846220    0.000000000000
 C    9.785795852183    0.570671913022    0.000000000000
 H   10.878988905238    0.634588674131    0.000000000000
 C    9.006143072765    1.746132764750    0.000000000000
 H    9.516675203824    2.714223480932    0.000000000000
 C    7.602315272858    1.677592570636    0.000000000000
 H    6.967665759920    2.569316819397    0.000000000000
