25

 C   -8.509441963460   -0.496344628719    0.000000000000
 H   -9.602631963460   -0.560264628719    0.000000000000
 C   -7.872021963460    0.761975371281    0.000000000000
 H   -8.491891963460    1.663915371281    0.000000000000
 C   -7.729791963460   -1.671804628719    0.000000000000
 H   -8.240321963460   -2.639894628719    0.000000000000
 C   -6.469771963460    0.857525371281    0.000000000000
 H   -5.943401963460    1.817185371281    0.000000000000
 C   -6.325961963460   -1.603264628719    0.000000000000
 H   -5.691311963460   -2.494994628719    0.000000000000
 C   -5.655031963460   -0.329454628719    0.000000000000
 O   -4.338081963460   -0.252594628719    0.000000000000
RB   -1.542101963460   -0.089794628719    0.000000000000
 O    5.745554745795    0.334539777202    0.000000000000
 C    7.062503377747    0.411406915175    0.000000000000
 C    7.877247325639   -0.775575978288    0.000000000000
 H    7.350883937079   -1.735230866299    0.000000000000
 C    9.279495235983   -0.680019461308    0.000000000000
 H    9.899361049443   -1.581961599920    0.000000000000
 C    9.916908874107    0.578306159321    0.000000000000
 H   11.010101927163    0.642222920430    0.000000000000
 C    9.137256094690    1.753767011050    0.000000000000
 H    9.647788225748    2.721857727232    0.000000000000
 C    7.733428294783    1.685226816936    0.000000000000
 H    7.098778781845    2.576951065697    0.000000000000
