25

 C   -8.577990769186   -0.500335982581    0.000000000000
 H   -9.671180769186   -0.564255982581    0.000000000000
 C   -7.940570769186    0.757984017419    0.000000000000
 H   -8.560440769186    1.659924017419    0.000000000000
 C   -7.798340769186   -1.675795982581    0.000000000000
 H   -8.308870769186   -2.643885982581    0.000000000000
 C   -6.538320769186    0.853534017419    0.000000000000
 H   -6.011950769186    1.813194017419    0.000000000000
 C   -6.394510769186   -1.607255982581    0.000000000000
 H   -5.759860769186   -2.498985982581    0.000000000000
 C   -5.723580769186   -0.333445982581    0.000000000000
 O   -4.406630769186   -0.256585982581    0.000000000000
RB   -1.610650769186   -0.093785982581    0.000000000000
 O    5.876667767720    0.342174023502    0.000000000000
 C    7.193616399671    0.419041161475    0.000000000000
 C    8.008360347564   -0.767941731988    0.000000000000
 H    7.481996959003   -1.727596619999    0.000000000000
 C    9.410608257907   -0.672385215008    0.000000000000
 H   10.030474071367   -1.574327353620    0.000000000000
 C   10.048021896031    0.585940405621    0.000000000000
 H   11.141214949087    0.649857166730    0.000000000000
 C    9.268369116614    1.761401257350    0.000000000000
 H    9.778901247673    2.729491973531    0.000000000000
 C    7.864541316707    1.692861063236    0.000000000000
 H    7.229891803769    2.584585311996    0.000000000000
