25

 C   -8.646539574913   -0.504327336444    0.000000000000
 H   -9.739729574913   -0.568247336444    0.000000000000
 C   -8.009119574913    0.753992663556    0.000000000000
 H   -8.628989574913    1.655932663556    0.000000000000
 C   -7.866889574913   -1.679787336444    0.000000000000
 H   -8.377419574913   -2.647877336444    0.000000000000
 C   -6.606869574913    0.849542663556    0.000000000000
 H   -6.080499574913    1.809202663556    0.000000000000
 C   -6.463059574913   -1.611247336444    0.000000000000
 H   -5.828409574913   -2.502977336444    0.000000000000
 C   -5.792129574913   -0.337437336444    0.000000000000
 O   -4.475179574913   -0.260577336444    0.000000000000
RB   -1.679199574913   -0.097777336444    0.000000000000
 O    6.007780789644    0.349808269802    0.000000000000
 C    7.324729421596    0.426675407775    0.000000000000
 C    8.139473369488   -0.760307485688    0.000000000000
 H    7.613109980928   -1.719962373699    0.000000000000
 C    9.541721279832   -0.664750968709    0.000000000000
 H   10.161587093292   -1.566693107320    0.000000000000
 C   10.179134917956    0.593574651921    0.000000000000
 H   11.272327971012    0.657491413030    0.000000000000
 C    9.399482138539    1.769035503650    0.000000000000
 H    9.910014269597    2.737126219831    0.000000000000
 C    7.995654338632    1.700495309536    0.000000000000
 H    7.361004825694    2.592219558296    0.000000000000
