25

 C   -8.680813977776   -0.506323013375    0.000000000000
 H   -9.774003977776   -0.570243013375    0.000000000000
 C   -8.043393977776    0.751996986625    0.000000000000
 H   -8.663263977776    1.653936986625    0.000000000000
 C   -7.901163977776   -1.681783013375    0.000000000000
 H   -8.411693977776   -2.649873013375    0.000000000000
 C   -6.641143977776    0.847546986625    0.000000000000
 H   -6.114773977776    1.807206986625    0.000000000000
 C   -6.497333977776   -1.613243013375    0.000000000000
 H   -5.862683977776   -2.504973013375    0.000000000000
 C   -5.826403977776   -0.339433013375    0.000000000000
 O   -4.509453977776   -0.262573013375    0.000000000000
RB   -1.713473977776   -0.099773013375    0.000000000000
 O    6.073337300606    0.353625392952    0.000000000000
 C    7.390285932558    0.430492530924    0.000000000000
 C    8.205029880450   -0.756490362538    0.000000000000
 H    7.678666491890   -1.716145250549    0.000000000000
 C    9.607277790794   -0.660933845559    0.000000000000
 H   10.227143604254   -1.562875984171    0.000000000000
 C   10.244691428918    0.597391775071    0.000000000000
 H   11.337884481974    0.661308536180    0.000000000000
 C    9.465038649501    1.772852626800    0.000000000000
 H    9.975570780559    2.740943342981    0.000000000000
 C    8.061210849594    1.704312432686    0.000000000000
 H    7.426561336656    2.596036681446    0.000000000000
