25

 C   -8.715088380639   -0.508318690306    0.000000000000
 H   -9.808278380639   -0.572238690306    0.000000000000
 C   -8.077668380639    0.750001309694    0.000000000000
 H   -8.697538380639    1.651941309694    0.000000000000
 C   -7.935438380639   -1.683778690306    0.000000000000
 H   -8.445968380639   -2.651868690306    0.000000000000
 C   -6.675418380639    0.845551309694    0.000000000000
 H   -6.149048380639    1.805211309694    0.000000000000
 C   -6.531608380639   -1.615238690306    0.000000000000
 H   -5.896958380639   -2.506968690306    0.000000000000
 C   -5.860678380639   -0.341428690306    0.000000000000
 O   -4.543728380639   -0.264568690306    0.000000000000
RB   -1.747748380639   -0.101768690306    0.000000000000
 O    6.138893811568    0.357442516101    0.000000000000
 C    7.455842443520    0.434309654074    0.000000000000
 C    8.270586391412   -0.752673239388    0.000000000000
 H    7.744223002852   -1.712328127399    0.000000000000
 C    9.672834301756   -0.657116722409    0.000000000000
 H   10.292700115216   -1.559058861021    0.000000000000
 C   10.310247939880    0.601208898221    0.000000000000
 H   11.403440992936    0.665125659330    0.000000000000
 C    9.530595160463    1.776669749949    0.000000000000
 H   10.041127291522    2.744760466131    0.000000000000
 C    8.126767360556    1.708129555835    0.000000000000
 H    7.492117847618    2.599853804596    0.000000000000
