25

 C   -8.749362783502   -0.510314367237    0.000000000000
 H   -9.842552783502   -0.574234367237    0.000000000000
 C   -8.111942783502    0.748005632763    0.000000000000
 H   -8.731812783502    1.649945632763    0.000000000000
 C   -7.969712783502   -1.685774367237    0.000000000000
 H   -8.480242783502   -2.653864367237    0.000000000000
 C   -6.709692783502    0.843555632763    0.000000000000
 H   -6.183322783502    1.803215632763    0.000000000000
 C   -6.565882783502   -1.617234367237    0.000000000000
 H   -5.931232783502   -2.508964367237    0.000000000000
 C   -5.894952783502   -0.343424367237    0.000000000000
 O   -4.578002783502   -0.266564367237    0.000000000000
RB   -1.782022783502   -0.103764367237    0.000000000000
 O    6.204450322531    0.361259639251    0.000000000000
 C    7.521398954483    0.438126777224    0.000000000000
 C    8.336142902375   -0.748856116238    0.000000000000
 H    7.809779513814   -1.708511004249    0.000000000000
 C    9.738390812718   -0.653299599259    0.000000000000
 H   10.358256626178   -1.555241737871    0.000000000000
 C   10.375804450843    0.605026021371    0.000000000000
 H   11.468997503898    0.668942782480    0.000000000000
 C    9.596151671425    1.780486873099    0.000000000000
 H   10.106683802484    2.748577589281    0.000000000000
 C    8.192323871519    1.711946678985    0.000000000000
 H    7.557674358580    2.603670927746    0.000000000000
