25

 C   -8.817911589229   -0.514305721100    0.000000000000
 H   -9.911101589229   -0.578225721100    0.000000000000
 C   -8.180491589229    0.744014278900    0.000000000000
 H   -8.800361589229    1.645954278900    0.000000000000
 C   -8.038261589229   -1.689765721100    0.000000000000
 H   -8.548791589229   -2.657855721100    0.000000000000
 C   -6.778241589229    0.839564278900    0.000000000000
 H   -6.251871589229    1.799224278900    0.000000000000
 C   -6.634431589229   -1.621225721100    0.000000000000
 H   -5.999781589229   -2.512955721100    0.000000000000
 C   -5.963501589229   -0.347415721100    0.000000000000
 O   -4.646551589229   -0.270555721100    0.000000000000
RB   -1.850571589229   -0.107755721100    0.000000000000
 O    6.335563344455    0.368893885551    0.000000000000
 C    7.652511976407    0.445761023524    0.000000000000
 C    8.467255924299   -0.741221869939    0.000000000000
 H    7.940892535739   -1.700876757950    0.000000000000
 C    9.869503834643   -0.645665352959    0.000000000000
 H   10.489369648103   -1.547607491571    0.000000000000
 C   10.506917472767    0.612660267670    0.000000000000
 H   11.600110525823    0.676577028779    0.000000000000
 C    9.727264693350    1.788121119399    0.000000000000
 H   10.237796824408    2.756211835581    0.000000000000
 C    8.323436893443    1.719580925285    0.000000000000
 H    7.688787380505    2.611305174046    0.000000000000
