25

 C   -9.126381214997   -0.532266813481    0.000000000000
 H  -10.219571214997   -0.596186813481    0.000000000000
 C   -8.488961214997    0.726053186519    0.000000000000
 H   -9.108831214997    1.627993186519    0.000000000000
 C   -8.346731214997   -1.707726813481    0.000000000000
 H   -8.857261214997   -2.675816813481    0.000000000000
 C   -7.086711214997    0.821603186519    0.000000000000
 H   -6.560341214997    1.781263186519    0.000000000000
 C   -6.942901214997   -1.639186813481    0.000000000000
 H   -6.308251214997   -2.530916813481    0.000000000000
 C   -6.271971214997   -0.365376813481    0.000000000000
 O   -4.955021214997   -0.288516813481    0.000000000000
RB   -2.159041214997   -0.125716813481    0.000000000000
 O    6.925571943115    0.403247993900    0.000000000000
 C    8.242520575067    0.480115131873    0.000000000000
 C    9.057264522959   -0.706867761590    0.000000000000
 H    8.530901134399   -1.666522649600    0.000000000000
 C   10.459512433303   -0.611311244610    0.000000000000
 H   11.079378246763   -1.513253383222    0.000000000000
 C   11.096926071427    0.647014376020    0.000000000000
 H   12.190119124483    0.710931137129    0.000000000000
 C   10.317273292010    1.822475227748    0.000000000000
 H   10.827805423068    2.790565943930    0.000000000000
 C    8.913445492103    1.753935033634    0.000000000000
 H    8.278795979165    2.645659282395    0.000000000000
