25

 C   -9.194930020724   -0.536258167343    0.000000000000
 H  -10.288120020724   -0.600178167343    0.000000000000
 C   -8.557510020724    0.722061832657    0.000000000000
 H   -9.177380020724    1.624001832657    0.000000000000
 C   -8.415280020724   -1.711718167343    0.000000000000
 H   -8.925810020724   -2.679808167343    0.000000000000
 C   -7.155260020724    0.817611832657    0.000000000000
 H   -6.628890020724    1.777271832657    0.000000000000
 C   -7.011450020724   -1.643178167343    0.000000000000
 H   -6.376800020724   -2.534908167343    0.000000000000
 C   -6.340520020724   -0.369368167343    0.000000000000
 O   -5.023570020724   -0.292508167343    0.000000000000
RB   -2.227590020724   -0.129708167343    0.000000000000
 O    7.056684965040    0.410882240200    0.000000000000
 C    8.373633596991    0.487749378173    0.000000000000
 C    9.188377544884   -0.699233515290    0.000000000000
 H    8.662014156323   -1.658888403301    0.000000000000
 C   10.590625455227   -0.603676998310    0.000000000000
 H   11.210491268687   -1.505619136922    0.000000000000
 C   11.228039093352    0.654648622319    0.000000000000
 H   12.321232146407    0.718565383428    0.000000000000
 C   10.448386313934    1.830109474048    0.000000000000
 H   10.958918444993    2.798200190229    0.000000000000
 C    9.044558514027    1.761569279934    0.000000000000
 H    8.409909001089    2.653293528695    0.000000000000
