25

 C   -9.332027632177   -0.544240875068    0.000000000000
 H  -10.425217632177   -0.608160875068    0.000000000000
 C   -8.694607632177    0.714079124932    0.000000000000
 H   -9.314477632177    1.616019124932    0.000000000000
 C   -8.552377632177   -1.719700875068    0.000000000000
 H   -9.062907632177   -2.687790875068    0.000000000000
 C   -7.292357632177    0.809629124932    0.000000000000
 H   -6.765987632177    1.769289124932    0.000000000000
 C   -7.148547632177   -1.651160875068    0.000000000000
 H   -6.513897632177   -2.542890875068    0.000000000000
 C   -6.477617632177   -0.377350875068    0.000000000000
 O   -5.160667632177   -0.300490875068    0.000000000000
RB   -2.364687632177   -0.137690875068    0.000000000000
 O    7.318911008889    0.426150732800    0.000000000000
 C    8.635859640840    0.503017870773    0.000000000000
 C    9.450603588733   -0.683965022690    0.000000000000
 H    8.924240200172   -1.643619910701    0.000000000000
 C   10.852851499076   -0.588408505711    0.000000000000
 H   11.472717312536   -1.490350644322    0.000000000000
 C   11.490265137200    0.669917114919    0.000000000000
 H   12.583458190256    0.733833876028    0.000000000000
 C   10.710612357783    1.845377966648    0.000000000000
 H   11.221144488842    2.813468682829    0.000000000000
 C    9.306784557876    1.776837772534    0.000000000000
 H    8.672135044938    2.668562021294    0.000000000000
