25

 C   -9.400576437903   -0.548232228930    0.000000000000
 H  -10.493766437903   -0.612152228930    0.000000000000
 C   -8.763156437903    0.710087771070    0.000000000000
 H   -9.383026437903    1.612027771070    0.000000000000
 C   -8.620926437903   -1.723692228930    0.000000000000
 H   -9.131456437903   -2.691782228930    0.000000000000
 C   -7.360906437903    0.805637771070    0.000000000000
 H   -6.834536437903    1.765297771070    0.000000000000
 C   -7.217096437903   -1.655152228930    0.000000000000
 H   -6.582446437903   -2.546882228930    0.000000000000
 C   -6.546166437903   -0.381342228930    0.000000000000
 O   -5.229216437903   -0.304482228930    0.000000000000
RB   -2.433236437903   -0.141682228930    0.000000000000
 O    7.450024030813    0.433784979099    0.000000000000
 C    8.766972662765    0.510652117072    0.000000000000
 C    9.581716610657   -0.676330776390    0.000000000000
 H    9.055353222097   -1.635985664401    0.000000000000
 C   10.983964521001   -0.580774259411    0.000000000000
 H   11.603830334461   -1.482716398023    0.000000000000
 C   11.621378159125    0.677551361219    0.000000000000
 H   12.714571212181    0.741468122328    0.000000000000
 C   10.841725379708    1.853012212947    0.000000000000
 H   11.352257510766    2.821102929129    0.000000000000
 C    9.437897579801    1.784472018833    0.000000000000
 H    8.803248066863    2.676196267594    0.000000000000
