22

 C   -1.916490790530   -3.754634497046    0.000000000000
 H   -2.549130790530   -4.635014497046    0.000000000000
 C   -2.223970790530   -2.403284497046    0.000000000000
 H   -3.182370790530   -1.897024497046    0.000000000000
 N   -0.536990790530   -3.827324497046    0.000000000000
 H    0.012909209470   -4.677484497046    0.000000000000
 N   -1.034650790530   -1.725854497046    0.000000000000
 H   -0.839310790530   -0.702944497046    0.000000000000
 C   -0.015220790530   -2.577914497046    0.000000000000
 H    1.029769209470   -2.293264497046    0.000000000000
CL    0.156389209470    0.260865502954    1.866180000000
CL    0.156389209470    0.260865502954   -1.866180000000
 N    0.876242369022    1.461620027693    0.000000000000
 H    0.680895543347    0.438705770437    0.000000000000
 C   -0.143187345424    2.313672937849    0.000000000000
 H   -1.188181609821    2.029019442742    0.000000000000
 N    0.378580311293    3.563080938785    0.000000000000
 H   -0.171322835231    4.413247410450    0.000000000000
 C    1.758076898795    3.490398388119    0.000000000000
 H    2.390717986715    4.370773163982    0.000000000000
 C    2.065559632536    2.139055548689    0.000000000000
 H    3.023957110667    1.632786772581    0.000000000000
