22

 C   -1.933556624355   -3.783101243232    0.000000000000
 H   -2.566196624355   -4.663481243232    0.000000000000
 C   -2.241036624355   -2.431751243232    0.000000000000
 H   -3.199436624355   -1.925491243232    0.000000000000
 N   -0.554056624355   -3.855791243232    0.000000000000
 H   -0.004156624355   -4.705951243232    0.000000000000
 N   -1.051716624355   -1.754321243232    0.000000000000
 H   -0.856376624355   -0.731411243232    0.000000000000
 C   -0.032286624355   -2.606381243232    0.000000000000
 H    1.012703375645   -2.321731243232    0.000000000000
CL    0.139323375645    0.232398756768    1.866180000000
CL    0.139323375645    0.232398756768   -1.866180000000
 N    0.910594618022    1.518921461846    0.000000000000
 H    0.715247792347    0.496007204589    0.000000000000
 C   -0.108835096424    2.370974372001    0.000000000000
 H   -1.153829360821    2.086320876894    0.000000000000
 N    0.412932560293    3.620382372938    0.000000000000
 H   -0.136970586231    4.470548844603    0.000000000000
 C    1.792429147795    3.547699822272    0.000000000000
 H    2.425070235715    4.428074598134    0.000000000000
 C    2.099911881536    2.196356982842    0.000000000000
 H    3.058309359667    1.690088206733    0.000000000000
