22

 C   -1.967688292006   -3.840034735604    0.000000000000
 H   -2.600328292006   -4.720414735604    0.000000000000
 C   -2.275168292006   -2.488684735604    0.000000000000
 H   -3.233568292006   -1.982424735604    0.000000000000
 N   -0.588188292006   -3.912724735604    0.000000000000
 H   -0.038288292006   -4.762884735604    0.000000000000
 N   -1.085848292006   -1.811254735604    0.000000000000
 H   -0.890508292006   -0.788344735604    0.000000000000
 C   -0.066418292006   -2.663314735604    0.000000000000
 H    0.978571707994   -2.378664735604    0.000000000000
CL    0.105191707994    0.175465264396    1.866180000000
CL    0.105191707994    0.175465264396   -1.866180000000
 N    0.979299116022    1.633524330151    0.000000000000
 H    0.783952290346    0.610610072895    0.000000000000
 C   -0.040130598424    2.485577240307    0.000000000000
 H   -1.085124862821    2.200923745199    0.000000000000
 N    0.481637058293    3.734985241243    0.000000000000
 H   -0.068266088231    4.585151712908    0.000000000000
 C    1.861133645794    3.662302690577    0.000000000000
 H    2.493774733714    4.542677466439    0.000000000000
 C    2.168616379536    2.310959851147    0.000000000000
 H    3.127013857666    1.804691075039    0.000000000000
