22

 C   -2.018885793482   -3.925434974162    0.000000000000
 H   -2.651525793482   -4.805814974162    0.000000000000
 C   -2.326365793482   -2.574084974162    0.000000000000
 H   -3.284765793482   -2.067824974162    0.000000000000
 N   -0.639385793482   -3.998124974162    0.000000000000
 H   -0.089485793482   -4.848284974162    0.000000000000
 N   -1.137045793482   -1.896654974162    0.000000000000
 H   -0.941705793482   -0.873744974162    0.000000000000
 C   -0.117615793482   -2.748714974162    0.000000000000
 H    0.927374206518   -2.464064974162    0.000000000000
CL    0.053994206518    0.090065025838    1.866180000000
CL    0.053994206518    0.090065025838   -1.866180000000
 N    1.082355863022    1.805428632609    0.000000000000
 H    0.887009037346    0.782514375352    0.000000000000
 C    0.062926148576    2.657481542764    0.000000000000
 H   -0.982068115822    2.372828047657    0.000000000000
 N    0.584693805292    3.906889543701    0.000000000000
 H    0.034790658768    4.757056015365    0.000000000000
 C    1.964190392794    3.834206993034    0.000000000000
 H    2.596831480714    4.714581768897    0.000000000000
 C    2.271673126536    2.482864153605    0.000000000000
 H    3.230070604666    1.976595377496    0.000000000000
