22

 C   -2.035951627307   -3.953901720348    0.000000000000
 H   -2.668591627307   -4.834281720348    0.000000000000
 C   -2.343431627307   -2.602551720348    0.000000000000
 H   -3.301831627307   -2.096291720348    0.000000000000
 N   -0.656451627307   -4.026591720348    0.000000000000
 H   -0.106551627307   -4.876751720348    0.000000000000
 N   -1.154111627307   -1.925121720348    0.000000000000
 H   -0.958771627307   -0.902211720348    0.000000000000
 C   -0.134681627307   -2.777181720348    0.000000000000
 H    0.910308372693   -2.492531720348    0.000000000000
CL    0.036928372693    0.061598279652    1.866180000000
CL    0.036928372693    0.061598279652   -1.866180000000
 N    1.116708112022    1.862730066761    0.000000000000
 H    0.921361286346    0.839815809505    0.000000000000
 C    0.097278397576    2.714782976917    0.000000000000
 H   -0.947715866822    2.430129481810    0.000000000000
 N    0.619046054292    3.964190977853    0.000000000000
 H    0.069142907768    4.814357449518    0.000000000000
 C    1.998542641794    3.891508427187    0.000000000000
 H    2.631183729714    4.771883203050    0.000000000000
 C    2.306025375536    2.540165587757    0.000000000000
 H    3.264422853666    2.033896811649    0.000000000000
