22

 C   -2.104214962608   -4.067768705092    0.000000000000
 H   -2.736854962608   -4.948148705092    0.000000000000
 C   -2.411694962608   -2.716418705092    0.000000000000
 H   -3.370094962608   -2.210158705092    0.000000000000
 N   -0.724714962608   -4.140458705092    0.000000000000
 H   -0.174814962608   -4.990618705092    0.000000000000
 N   -1.222374962608   -2.038988705092    0.000000000000
 H   -1.027034962608   -1.016078705092    0.000000000000
 C   -0.202944962608   -2.891048705092    0.000000000000
 H    0.842045037392   -2.606398705092    0.000000000000
CL   -0.031334962608   -0.052268705092    1.866180000000
CL   -0.031334962608   -0.052268705092   -1.866180000000
 N    1.254117108021    2.091935803372    0.000000000000
 H    1.058770282346    1.069021546115    0.000000000000
 C    0.234687393575    2.943988713527    0.000000000000
 H   -0.810306870822    2.659335218420    0.000000000000
 N    0.756455050292    4.193396714464    0.000000000000
 H    0.206551903768    5.043563186128    0.000000000000
 C    2.135951637794    4.120714163797    0.000000000000
 H    2.768592725714    5.001088939660    0.000000000000
 C    2.443434371535    2.769371324368    0.000000000000
 H    3.401831849666    2.263102548259    0.000000000000
