22

 C   -2.138346630259   -4.124702197464    0.000000000000
 H   -2.770986630259   -5.005082197464    0.000000000000
 C   -2.445826630259   -2.773352197464    0.000000000000
 H   -3.404226630259   -2.267092197464    0.000000000000
 N   -0.758846630259   -4.197392197464    0.000000000000
 H   -0.208946630259   -5.047552197464    0.000000000000
 N   -1.256506630259   -2.095922197464    0.000000000000
 H   -1.061166630259   -1.073012197464    0.000000000000
 C   -0.237076630259   -2.947982197464    0.000000000000
 H    0.807913369741   -2.663332197464    0.000000000000
CL   -0.065466630259   -0.109202197464    1.866180000000
CL   -0.065466630259   -0.109202197464   -1.866180000000
 N    1.322821606021    2.206538671677    0.000000000000
 H    1.127474780345    1.183624414420    0.000000000000
 C    0.303391891575    3.058591581832    0.000000000000
 H   -0.741602372822    2.773938086725    0.000000000000
 N    0.825159548292    4.307999582769    0.000000000000
 H    0.275256401768    5.158166054433    0.000000000000
 C    2.204656135793    4.235317032102    0.000000000000
 H    2.837297223713    5.115691807965    0.000000000000
 C    2.512138869535    2.883974192673    0.000000000000
 H    3.470536347665    2.377705416564    0.000000000000
