22

 C   -2.155412464084   -4.153168943650    0.000000000000
 H   -2.788052464084   -5.033548943650    0.000000000000
 C   -2.462892464084   -2.801818943650    0.000000000000
 H   -3.421292464084   -2.295558943650    0.000000000000
 N   -0.775912464084   -4.225858943650    0.000000000000
 H   -0.226012464084   -5.076018943650    0.000000000000
 N   -1.273572464084   -2.124388943650    0.000000000000
 H   -1.078232464084   -1.101478943650    0.000000000000
 C   -0.254142464084   -2.976448943650    0.000000000000
 H    0.790847535916   -2.691798943650    0.000000000000
CL   -0.082532464084   -0.137668943650    1.866180000000
CL   -0.082532464084   -0.137668943650   -1.866180000000
 N    1.357173855021    2.263840105829    0.000000000000
 H    1.161827029345    1.240925848573    0.000000000000
 C    0.337744140575    3.115893015985    0.000000000000
 H   -0.707250123822    2.831239520878    0.000000000000
 N    0.859511797292    4.365301016921    0.000000000000
 H    0.309608650767    5.215467488586    0.000000000000
 C    2.239008384793    4.292618466255    0.000000000000
 H    2.871649472713    5.172993242118    0.000000000000
 C    2.546491118535    2.941275626825    0.000000000000
 H    3.504888596665    2.435006850717    0.000000000000
