22

 C   -2.189544131734   -4.210102436022    0.000000000000
 H   -2.822184131734   -5.090482436022    0.000000000000
 C   -2.497024131734   -2.858752436022    0.000000000000
 H   -3.455424131734   -2.352492436022    0.000000000000
 N   -0.810044131734   -4.282792436022    0.000000000000
 H   -0.260144131734   -5.132952436022    0.000000000000
 N   -1.307704131734   -2.181322436022    0.000000000000
 H   -1.112364131734   -1.158412436022    0.000000000000
 C   -0.288274131734   -3.033382436022    0.000000000000
 H    0.756715868266   -2.748732436022    0.000000000000
CL   -0.116664131734   -0.194602436022    1.866180000000
CL   -0.116664131734   -0.194602436022   -1.866180000000
 N    1.425878353021    2.378442974134    0.000000000000
 H    1.230531527345    1.355528716878    0.000000000000
 C    0.406448638575    3.230495884290    0.000000000000
 H   -0.638545625823    2.945842389183    0.000000000000
 N    0.928216295291    4.479903885227    0.000000000000
 H    0.378313148767    5.330070356891    0.000000000000
 C    2.307712882793    4.407221334560    0.000000000000
 H    2.940353970713    5.287596110423    0.000000000000
 C    2.615195616535    3.055878495130    0.000000000000
 H    3.573593094665    2.549609719022    0.000000000000
