22

 C   -2.274873300861   -4.352436166952    0.000000000000
 H   -2.907513300861   -5.232816166952    0.000000000000
 C   -2.582353300861   -3.001086166952    0.000000000000
 H   -3.540753300861   -2.494826166952    0.000000000000
 N   -0.895373300861   -4.425126166952    0.000000000000
 H   -0.345473300861   -5.275286166952    0.000000000000
 N   -1.393033300861   -2.323656166952    0.000000000000
 H   -1.197693300861   -1.300746166952    0.000000000000
 C   -0.373603300861   -3.175716166952    0.000000000000
 H    0.671386699139   -2.891066166952    0.000000000000
CL   -0.201993300861   -0.336936166952    1.866180000000
CL   -0.201993300861   -0.336936166952   -1.866180000000
 N    1.597639598020    2.664950144897    0.000000000000
 H    1.402292772345    1.642035887641    0.000000000000
 C    0.578209883574    3.517003055053    0.000000000000
 H   -0.466784380823    3.232349559946    0.000000000000
 N    1.099977540291    4.766411055989    0.000000000000
 H    0.550074393767    5.616577527654    0.000000000000
 C    2.479474127793    4.693728505323    0.000000000000
 H    3.112115215713    5.574103281186    0.000000000000
 C    2.786956861534    3.342385665893    0.000000000000
 H    3.745354339665    2.836116889785    0.000000000000
