22

 C   -2.291939134686   -4.380902913138    0.000000000000
 H   -2.924579134686   -5.261282913138    0.000000000000
 C   -2.599419134686   -3.029552913138    0.000000000000
 H   -3.557819134686   -2.523292913138    0.000000000000
 N   -0.912439134686   -4.453592913138    0.000000000000
 H   -0.362539134686   -5.303752913138    0.000000000000
 N   -1.410099134686   -2.352122913138    0.000000000000
 H   -1.214759134686   -1.329212913138    0.000000000000
 C   -0.390669134686   -3.204182913138    0.000000000000
 H    0.654320865314   -2.919532913138    0.000000000000
CL   -0.219059134686   -0.365402913138    1.866180000000
CL   -0.219059134686   -0.365402913138   -1.866180000000
 N    1.631991847020    2.722251579050    0.000000000000
 H    1.436645021344    1.699337321793    0.000000000000
 C    0.612562132574    3.574304489205    0.000000000000
 H   -0.432432131823    3.289650994098    0.000000000000
 N    1.134329789291    4.823712490142    0.000000000000
 H    0.584426642767    5.673878961807    0.000000000000
 C    2.513826376793    4.751029939476    0.000000000000
 H    3.146467464713    5.631404715338    0.000000000000
 C    2.821309110534    3.399687100046    0.000000000000
 H    3.779706588664    2.893418323937    0.000000000000
