22

 C   -2.309004968511   -4.409369659324    0.000000000000
 H   -2.941644968511   -5.289749659324    0.000000000000
 C   -2.616484968511   -3.058019659324    0.000000000000
 H   -3.574884968511   -2.551759659324    0.000000000000
 N   -0.929504968511   -4.482059659324    0.000000000000
 H   -0.379604968511   -5.332219659324    0.000000000000
 N   -1.427164968511   -2.380589659324    0.000000000000
 H   -1.231824968511   -1.357679659324    0.000000000000
 C   -0.407734968511   -3.232649659324    0.000000000000
 H    0.637255031489   -2.947999659324    0.000000000000
CL   -0.236124968511   -0.393869659324    1.866180000000
CL   -0.236124968511   -0.393869659324   -1.866180000000
 N    1.666344096020    2.779553013202    0.000000000000
 H    1.470997270344    1.756638755946    0.000000000000
 C    0.646914381574    3.631605923358    0.000000000000
 H   -0.398079882823    3.346952428251    0.000000000000
 N    1.168682038291    4.881013924295    0.000000000000
 H    0.618778891766    5.731180395959    0.000000000000
 C    2.548178625792    4.808331373628    0.000000000000
 H    3.180819713712    5.688706149491    0.000000000000
 C    2.855661359534    3.456988534198    0.000000000000
 H    3.814058837664    2.950719758090    0.000000000000
