22

 C   -2.326070802336   -4.437836405510    0.000000000000
 H   -2.958710802336   -5.318216405510    0.000000000000
 C   -2.633550802336   -3.086486405510    0.000000000000
 H   -3.591950802336   -2.580226405510    0.000000000000
 N   -0.946570802336   -4.510526405510    0.000000000000
 H   -0.396670802336   -5.360686405510    0.000000000000
 N   -1.444230802336   -2.409056405510    0.000000000000
 H   -1.248890802336   -1.386146405510    0.000000000000
 C   -0.424800802336   -3.261116405510    0.000000000000
 H    0.620189197664   -2.976466405510    0.000000000000
CL   -0.253190802336   -0.422336405510    1.866180000000
CL   -0.253190802336   -0.422336405510   -1.866180000000
 N    1.700696345020    2.836854447355    0.000000000000
 H    1.505349519344    1.813940190099    0.000000000000
 C    0.681266630574    3.688907357511    0.000000000000
 H   -0.363727633823    3.404253862403    0.000000000000
 N    1.203034287291    4.938315358447    0.000000000000
 H    0.653131140766    5.788481830112    0.000000000000
 C    2.582530874792    4.865632807781    0.000000000000
 H    3.215171962712    5.746007583643    0.000000000000
 C    2.890013608534    3.514289968351    0.000000000000
 H    3.848411086664    3.008021192243    0.000000000000
