22

 C   -2.343136636162   -4.466303151696    0.000000000000
 H   -2.975776636162   -5.346683151696    0.000000000000
 C   -2.650616636162   -3.114953151696    0.000000000000
 H   -3.609016636162   -2.608693151696    0.000000000000
 N   -0.963636636162   -4.538993151696    0.000000000000
 H   -0.413736636162   -5.389153151696    0.000000000000
 N   -1.461296636162   -2.437523151696    0.000000000000
 H   -1.265956636162   -1.414613151696    0.000000000000
 C   -0.441866636162   -3.289583151696    0.000000000000
 H    0.603123363838   -3.004933151696    0.000000000000
CL   -0.270256636162   -0.450803151696    1.866180000000
CL   -0.270256636162   -0.450803151696   -1.866180000000
 N    1.735048594020    2.894155881508    0.000000000000
 H    1.539701768344    1.871241624251    0.000000000000
 C    0.715618879574    3.746208791663    0.000000000000
 H   -0.329375384824    3.461555296556    0.000000000000
 N    1.237386536291    4.995616792600    0.000000000000
 H    0.687483389766    5.845783264264    0.000000000000
 C    2.616883123792    4.922934241933    0.000000000000
 H    3.249524211712    5.803309017796    0.000000000000
 C    2.924365857534    3.571591402504    0.000000000000
 H    3.882763335664    3.065322626395    0.000000000000
