22

 C   -2.377268303812   -4.523236644067    0.000000000000
 H   -3.009908303812   -5.403616644067    0.000000000000
 C   -2.684748303812   -3.171886644067    0.000000000000
 H   -3.643148303812   -2.665626644067    0.000000000000
 N   -0.997768303812   -4.595926644067    0.000000000000
 H   -0.447868303812   -5.446086644067    0.000000000000
 N   -1.495428303812   -2.494456644067    0.000000000000
 H   -1.300088303812   -1.471546644067    0.000000000000
 C   -0.475998303812   -3.346516644067    0.000000000000
 H    0.568991696188   -3.061866644067    0.000000000000
CL   -0.304388303812   -0.507736644067    1.866180000000
CL   -0.304388303812   -0.507736644067   -1.866180000000
 N    1.803753092020    3.008758749813    0.000000000000
 H    1.608406266344    1.985844492556    0.000000000000
 C    0.784323377574    3.860811659968    0.000000000000
 H   -0.260670886824    3.576158164861    0.000000000000
 N    1.306091034290    5.110219660905    0.000000000000
 H    0.756187887766    5.960386132569    0.000000000000
 C    2.685587621792    5.037537110238    0.000000000000
 H    3.318228709712    5.917911886101    0.000000000000
 C    2.993070355534    3.686194270809    0.000000000000
 H    3.951467833664    3.179925494700    0.000000000000
