22

 C   -2.394334137638   -4.551703390253    0.000000000000
 H   -3.026974137638   -5.432083390253    0.000000000000
 C   -2.701814137638   -3.200353390253    0.000000000000
 H   -3.660214137638   -2.694093390253    0.000000000000
 N   -1.014834137638   -4.624393390253    0.000000000000
 H   -0.464934137638   -5.474553390253    0.000000000000
 N   -1.512494137638   -2.522923390253    0.000000000000
 H   -1.317154137638   -1.500013390253    0.000000000000
 C   -0.493064137638   -3.374983390253    0.000000000000
 H    0.551925862362   -3.090333390253    0.000000000000
CL   -0.321454137638   -0.536203390253    1.866180000000
CL   -0.321454137638   -0.536203390253   -1.866180000000
 N    1.838105341019    3.066060183965    0.000000000000
 H    1.642758515344    2.043145926709    0.000000000000
 C    0.818675626573    3.918113094121    0.000000000000
 H   -0.226318637824    3.633459599014    0.000000000000
 N    1.340443283290    5.167521095057    0.000000000000
 H    0.790540136766    6.017687566722    0.000000000000
 C    2.719939870792    5.094838544391    0.000000000000
 H    3.352580958712    5.975213320254    0.000000000000
 C    3.027422604534    3.743495704961    0.000000000000
 H    3.985820082664    3.237226928853    0.000000000000
