22

 C   -2.411399971463   -4.580170136439    0.000000000000
 H   -3.044039971463   -5.460550136439    0.000000000000
 C   -2.718879971463   -3.228820136439    0.000000000000
 H   -3.677279971463   -2.722560136439    0.000000000000
 N   -1.031899971463   -4.652860136439    0.000000000000
 H   -0.481999971463   -5.503020136439    0.000000000000
 N   -1.529559971463   -2.551390136439    0.000000000000
 H   -1.334219971463   -1.528480136439    0.000000000000
 C   -0.510129971463   -3.403450136439    0.000000000000
 H    0.534860028537   -3.118800136439    0.000000000000
CL   -0.338519971463   -0.564670136439    1.866180000000
CL   -0.338519971463   -0.564670136439   -1.866180000000
 N    1.872457590019    3.123361618118    0.000000000000
 H    1.677110764344    2.100447360861    0.000000000000
 C    0.853027875573    3.975414528273    0.000000000000
 H   -0.191966388824    3.690761033166    0.000000000000
 N    1.374795532290    5.224822529210    0.000000000000
 H    0.824892385766    6.074989000875    0.000000000000
 C    2.754292119792    5.152139978544    0.000000000000
 H    3.386933207712    6.032514754406    0.000000000000
 C    3.061774853534    3.800797139114    0.000000000000
 H    4.020172331664    3.294528363005    0.000000000000
