22

 C   -2.445531639113   -4.637103628811    0.000000000000
 H   -3.078171639113   -5.517483628811    0.000000000000
 C   -2.753011639113   -3.285753628811    0.000000000000
 H   -3.711411639113   -2.779493628811    0.000000000000
 N   -1.066031639113   -4.709793628811    0.000000000000
 H   -0.516131639113   -5.559953628811    0.000000000000
 N   -1.563691639113   -2.608323628811    0.000000000000
 H   -1.368351639113   -1.585413628811    0.000000000000
 C   -0.544261639113   -3.460383628811    0.000000000000
 H    0.500728360887   -3.175733628811    0.000000000000
CL   -0.372651639113   -0.621603628811    1.866180000000
CL   -0.372651639113   -0.621603628811   -1.866180000000
 N    1.941162088019    3.237964486423    0.000000000000
 H    1.745815262344    2.215050229167    0.000000000000
 C    0.921732373573    4.090017396579    0.000000000000
 H   -0.123261890824    3.805363901471    0.000000000000
 N    1.443500030290    5.339425397515    0.000000000000
 H    0.893596883766    6.189591869180    0.000000000000
 C    2.822996617792    5.266742846849    0.000000000000
 H    3.455637705712    6.147117622711    0.000000000000
 C    3.130479351533    3.915400007419    0.000000000000
 H    4.088876829664    3.409131231311    0.000000000000
