22

 C   -2.462597472939   -4.665570374997    0.000000000000
 H   -3.095237472939   -5.545950374997    0.000000000000
 C   -2.770077472939   -3.314220374997    0.000000000000
 H   -3.728477472939   -2.807960374997    0.000000000000
 N   -1.083097472939   -4.738260374997    0.000000000000
 H   -0.533197472939   -5.588420374997    0.000000000000
 N   -1.580757472939   -2.636790374997    0.000000000000
 H   -1.385417472939   -1.613880374997    0.000000000000
 C   -0.561327472939   -3.488850374997    0.000000000000
 H    0.483662527061   -3.204200374997    0.000000000000
CL   -0.389717472939   -0.650070374997    1.866180000000
CL   -0.389717472939   -0.650070374997   -1.866180000000
 N    1.975514337019    3.295265920576    0.000000000000
 H    1.780167511343    2.272351663319    0.000000000000
 C    0.956084622573    4.147318830731    0.000000000000
 H   -0.088909641824    3.862665335624    0.000000000000
 N    1.477852279290    5.396726831668    0.000000000000
 H    0.927949132766    6.246893303332    0.000000000000
 C    2.857348866791    5.324044281001    0.000000000000
 H    3.489989954712    6.204419056864    0.000000000000
 C    3.164831600533    3.972701441572    0.000000000000
 H    4.123229078663    3.466432665463    0.000000000000
