22

 C   -2.496729140589   -4.722503867369    0.000000000000
 H   -3.129369140589   -5.602883867369    0.000000000000
 C   -2.804209140589   -3.371153867369    0.000000000000
 H   -3.762609140589   -2.864893867369    0.000000000000
 N   -1.117229140589   -4.795193867369    0.000000000000
 H   -0.567329140589   -5.645353867369    0.000000000000
 N   -1.614889140589   -2.693723867369    0.000000000000
 H   -1.419549140589   -1.670813867369    0.000000000000
 C   -0.595459140589   -3.545783867369    0.000000000000
 H    0.449530859411   -3.261133867369    0.000000000000
CL   -0.423849140589   -0.707003867369    1.866180000000
CL   -0.423849140589   -0.707003867369   -1.866180000000
 N    2.044218835019    3.409868788881    0.000000000000
 H    1.848872009343    2.386954531624    0.000000000000
 C    1.024789120573    4.261921699036    0.000000000000
 H   -0.020205143824    3.977268203929    0.000000000000
 N    1.546556777290    5.511329699973    0.000000000000
 H    0.996653630765    6.361496171637    0.000000000000
 C    2.926053364791    5.438647149306    0.000000000000
 H    3.558694452711    6.319021925169    0.000000000000
 C    3.233536098533    4.087304309877    0.000000000000
 H    4.191933576663    3.581035533768    0.000000000000
