22

 C   -2.564992475890   -4.836370852113    0.000000000000
 H   -3.197632475890   -5.716750852113    0.000000000000
 C   -2.872472475890   -3.485020852113    0.000000000000
 H   -3.830872475890   -2.978760852113    0.000000000000
 N   -1.185492475890   -4.909060852113    0.000000000000
 H   -0.635592475890   -5.759220852113    0.000000000000
 N   -1.683152475890   -2.807590852113    0.000000000000
 H   -1.487812475890   -1.784680852113    0.000000000000
 C   -0.663722475890   -3.659650852113    0.000000000000
 H    0.381267524110   -3.375000852113    0.000000000000
CL   -0.492112475890   -0.820870852113    1.866180000000
CL   -0.492112475890   -0.820870852113   -1.866180000000
 N    2.181627831018    3.639074525491    0.000000000000
 H    1.986281005343    2.616160268235    0.000000000000
 C    1.162198116572    4.491127435647    0.000000000000
 H    0.117203852175    4.206473940539    0.000000000000
 N    1.683965773289    5.740535436583    0.000000000000
 H    1.134062626765    6.590701908248    0.000000000000
 C    3.063462360791    5.667852885917    0.000000000000
 H    3.696103448711    6.548227661779    0.000000000000
 C    3.370945094533    4.316510046487    0.000000000000
 H    4.329342572663    3.810241270379    0.000000000000
