22

 C   -2.633255811191   -4.950237836857    0.000000000000
 H   -3.265895811191   -5.830617836857    0.000000000000
 C   -2.940735811191   -3.598887836857    0.000000000000
 H   -3.899135811191   -3.092627836857    0.000000000000
 N   -1.253755811191   -5.022927836857    0.000000000000
 H   -0.703855811191   -5.873087836857    0.000000000000
 N   -1.751415811191   -2.921457836857    0.000000000000
 H   -1.556075811191   -1.898547836857    0.000000000000
 C   -0.731985811191   -3.773517836857    0.000000000000
 H    0.313004188809   -3.488867836857    0.000000000000
CL   -0.560375811191   -0.934737836857    1.866180000000
CL   -0.560375811191   -0.934737836857   -1.866180000000
 N    2.319036827018    3.868280262101    0.000000000000
 H    2.123690001342    2.845366004845    0.000000000000
 C    1.299607112572    4.720333172257    0.000000000000
 H    0.254612848175    4.435679677150    0.000000000000
 N    1.821374769289    5.969741173193    0.000000000000
 H    1.271471622765    6.819907644858    0.000000000000
 C    3.200871356790    5.897058622527    0.000000000000
 H    3.833512444711    6.777433398390    0.000000000000
 C    3.508354090532    4.545715783097    0.000000000000
 H    4.466751568662    4.039447006989    0.000000000000
