22

 C   -2.650321645017   -4.978704583043    0.000000000000
 H   -3.282961645017   -5.859084583043    0.000000000000
 C   -2.957801645017   -3.627354583043    0.000000000000
 H   -3.916201645017   -3.121094583043    0.000000000000
 N   -1.270821645017   -5.051394583043    0.000000000000
 H   -0.720921645017   -5.901554583043    0.000000000000
 N   -1.768481645017   -2.949924583043    0.000000000000
 H   -1.573141645017   -1.927014583043    0.000000000000
 C   -0.749051645017   -3.801984583043    0.000000000000
 H    0.295938354983   -3.517334583043    0.000000000000
CL   -0.577441645017   -0.963204583043    1.866180000000
CL   -0.577441645017   -0.963204583043   -1.866180000000
 N    2.353389076018    3.925581696254    0.000000000000
 H    2.158042250342    2.902667438997    0.000000000000
 C    1.333959361572    4.777634606409    0.000000000000
 H    0.288965097175    4.492981111302    0.000000000000
 N    1.855727018289    6.027042607346    0.000000000000
 H    1.305823871764    6.877209079011    0.000000000000
 C    3.235223605790    5.954360056680    0.000000000000
 H    3.867864693710    6.834734832542    0.000000000000
 C    3.542706339532    4.603017217250    0.000000000000
 H    4.501103817662    4.096748441141    0.000000000000
