22

 C   -2.684453312667   -5.035638075415    0.000000000000
 H   -3.317093312667   -5.916018075415    0.000000000000
 C   -2.991933312667   -3.684288075415    0.000000000000
 H   -3.950333312667   -3.178028075415    0.000000000000
 N   -1.304953312667   -5.108328075415    0.000000000000
 H   -0.755053312667   -5.958488075415    0.000000000000
 N   -1.802613312667   -3.006858075415    0.000000000000
 H   -1.607273312667   -1.983948075415    0.000000000000
 C   -0.783183312667   -3.858918075415    0.000000000000
 H    0.261806687333   -3.574268075415    0.000000000000
CL   -0.611573312667   -1.020138075415    1.866180000000
CL   -0.611573312667   -1.020138075415   -1.866180000000
 N    2.422093574018    4.040184564559    0.000000000000
 H    2.226746748342    3.017270307303    0.000000000000
 C    1.402663859572    4.892237474715    0.000000000000
 H    0.357669595174    4.607583979607    0.000000000000
 N    1.924431516289    6.141645475651    0.000000000000
 H    1.374528369764    6.991811947316    0.000000000000
 C    3.303928103790    6.068962924985    0.000000000000
 H    3.936569191710    6.949337700847    0.000000000000
 C    3.611410837532    4.717620085555    0.000000000000
 H    4.569808315662    4.211351309447    0.000000000000
