22

 C   -2.752716647968   -5.149505060159    0.000000000000
 H   -3.385356647968   -6.029885060159    0.000000000000
 C   -3.060196647968   -3.798155060159    0.000000000000
 H   -4.018596647968   -3.291895060159    0.000000000000
 N   -1.373216647968   -5.222195060159    0.000000000000
 H   -0.823316647968   -6.072355060159    0.000000000000
 N   -1.870876647968   -3.120725060159    0.000000000000
 H   -1.675536647968   -2.097815060159    0.000000000000
 C   -0.851446647968   -3.972785060159    0.000000000000
 H    0.193543352032   -3.688135060159    0.000000000000
CL   -0.679836647968   -1.134005060159    1.866180000000
CL   -0.679836647968   -1.134005060159   -1.866180000000
 N    2.559502570017    4.269390301169    0.000000000000
 H    2.364155744342    3.246476043913    0.000000000000
 C    1.540072855571    5.121443211325    0.000000000000
 H    0.495078591174    4.836789716218    0.000000000000
 N    2.061840512288    6.370851212261    0.000000000000
 H    1.511937365764    7.221017683926    0.000000000000
 C    3.441337099790    6.298168661595    0.000000000000
 H    4.073978187710    7.178543437458    0.000000000000
 C    3.748819833531    4.946825822165    0.000000000000
 H    4.707217311662    4.440557046057    0.000000000000
