22

 C   -2.786848315619   -5.206438552531    0.000000000000
 H   -3.419488315619   -6.086818552531    0.000000000000
 C   -3.094328315619   -3.855088552531    0.000000000000
 H   -4.052728315619   -3.348828552531    0.000000000000
 N   -1.407348315619   -5.279128552531    0.000000000000
 H   -0.857448315619   -6.129288552531    0.000000000000
 N   -1.905008315619   -3.177658552531    0.000000000000
 H   -1.709668315619   -2.154748552531    0.000000000000
 C   -0.885578315619   -4.029718552531    0.000000000000
 H    0.159411684381   -3.745068552531    0.000000000000
CL   -0.713968315619   -1.190938552531    1.866180000000
CL   -0.713968315619   -1.190938552531   -1.866180000000
 N    2.628207068017    4.383993169474    0.000000000000
 H    2.432860242342    3.361078912218    0.000000000000
 C    1.608777353571    5.236046079630    0.000000000000
 H    0.563783089174    4.951392584523    0.000000000000
 N    2.130545010288    6.485454080567    0.000000000000
 H    1.580641863764    7.335620552231    0.000000000000
 C    3.510041597790    6.412771529900    0.000000000000
 H    4.142682685710    7.293146305763    0.000000000000
 C    3.817524331531    5.061428690470    0.000000000000
 H    4.775921809662    4.555159914362    0.000000000000
