22

 C   -2.820979983269   -5.263372044903    0.000000000000
 H   -3.453619983269   -6.143752044903    0.000000000000
 C   -3.128459983269   -3.912022044903    0.000000000000
 H   -4.086859983269   -3.405762044903    0.000000000000
 N   -1.441479983269   -5.336062044903    0.000000000000
 H   -0.891579983269   -6.186222044903    0.000000000000
 N   -1.939139983269   -3.234592044903    0.000000000000
 H   -1.743799983269   -2.211682044903    0.000000000000
 C   -0.919709983269   -4.086652044903    0.000000000000
 H    0.125280016731   -3.802002044903    0.000000000000
CL   -0.748099983269   -1.247872044903    1.866180000000
CL   -0.748099983269   -1.247872044903   -1.866180000000
 N    2.696911566017    4.498596037780    0.000000000000
 H    2.501564740341    3.475681780523    0.000000000000
 C    1.677481851571    5.350648947935    0.000000000000
 H    0.632487587174    5.065995452828    0.000000000000
 N    2.199249508288    6.600056948872    0.000000000000
 H    1.649346361763    7.450223420536    0.000000000000
 C    3.578746095789    6.527374398205    0.000000000000
 H    4.211387183709    7.407749174068    0.000000000000
 C    3.886228829531    5.176031558776    0.000000000000
 H    4.844626307661    4.669762782667    0.000000000000
