22

 C   -2.838045817094   -5.291838791089    0.000000000000
 H   -3.470685817094   -6.172218791089    0.000000000000
 C   -3.145525817094   -3.940488791089    0.000000000000
 H   -4.103925817094   -3.434228791089    0.000000000000
 N   -1.458545817094   -5.364528791089    0.000000000000
 H   -0.908645817094   -6.214688791089    0.000000000000
 N   -1.956205817094   -3.263058791089    0.000000000000
 H   -1.760865817094   -2.240148791089    0.000000000000
 C   -0.936775817094   -4.115118791089    0.000000000000
 H    0.108214182906   -3.830468791089    0.000000000000
CL   -0.765165817094   -1.276338791089    1.866180000000
CL   -0.765165817094   -1.276338791089   -1.866180000000
 N    2.731263815017    4.555897471932    0.000000000000
 H    2.535916989341    3.532983214676    0.000000000000
 C    1.711834100571    5.407950382088    0.000000000000
 H    0.666839836174    5.123296886981    0.000000000000
 N    2.233601757288    6.657358383024    0.000000000000
 H    1.683698610763    7.507524854689    0.000000000000
 C    3.613098344789    6.584675832358    0.000000000000
 H    4.245739432709    7.465050608221    0.000000000000
 C    3.920581078531    5.233332992928    0.000000000000
 H    4.878978556661    4.727064216820    0.000000000000
