22

 C   -2.872177484745   -5.348772283461    0.000000000000
 H   -3.504817484745   -6.229152283461    0.000000000000
 C   -3.179657484745   -3.997422283461    0.000000000000
 H   -4.138057484745   -3.491162283461    0.000000000000
 N   -1.492677484745   -5.421462283461    0.000000000000
 H   -0.942777484745   -6.271622283461    0.000000000000
 N   -1.990337484745   -3.319992283461    0.000000000000
 H   -1.794997484745   -2.297082283461    0.000000000000
 C   -0.970907484745   -4.172052283461    0.000000000000
 H    0.074082515255   -3.887402283461    0.000000000000
CL   -0.799297484745   -1.333272283461    1.866180000000
CL   -0.799297484745   -1.333272283461   -1.866180000000
 N    2.799968313017    4.670500340237    0.000000000000
 H    2.604621487341    3.647586082981    0.000000000000
 C    1.780538598571    5.522553250393    0.000000000000
 H    0.735544334173    5.237899755286    0.000000000000
 N    2.302306255287    6.771961251329    0.000000000000
 H    1.752403108763    7.622127722994    0.000000000000
 C    3.681802842789    6.699278700663    0.000000000000
 H    4.314443930709    7.579653476526    0.000000000000
 C    3.989285576531    5.347935861233    0.000000000000
 H    4.947683054661    4.841667085125    0.000000000000
