22

 C   -2.974572487697   -5.519572760576    0.000000000000
 H   -3.607212487697   -6.399952760576    0.000000000000
 C   -3.282052487697   -4.168222760576    0.000000000000
 H   -4.240452487697   -3.661962760576    0.000000000000
 N   -1.595072487697   -5.592262760576    0.000000000000
 H   -1.045172487697   -6.442422760576    0.000000000000
 N   -2.092732487697   -3.490792760576    0.000000000000
 H   -1.897392487697   -2.467882760576    0.000000000000
 C   -1.073302487697   -4.342852760576    0.000000000000
 H   -0.028312487697   -4.058202760576    0.000000000000
CL   -0.901692487697   -1.504072760576    1.866180000000
CL   -0.901692487697   -1.504072760576   -1.866180000000
 N    3.006081807016    5.014308945153    0.000000000000
 H    2.810734981340    3.991394687896    0.000000000000
 C    1.986652092570    5.866361855308    0.000000000000
 H    0.941657828173    5.581708360201    0.000000000000
 N    2.508419749287    7.115769856245    0.000000000000
 H    1.958516602763    7.965936327909    0.000000000000
 C    3.887916336788    7.043087305578    0.000000000000
 H    4.520557424709    7.923462081441    0.000000000000
 C    4.195399070530    5.691744466149    0.000000000000
 H    5.153796548660    5.185475690040    0.000000000000
