22

 C   -2.991638321522   -5.548039506762    0.000000000000
 H   -3.624278321522   -6.428419506762    0.000000000000
 C   -3.299118321522   -4.196689506762    0.000000000000
 H   -4.257518321522   -3.690429506762    0.000000000000
 N   -1.612138321522   -5.620729506762    0.000000000000
 H   -1.062238321522   -6.470889506762    0.000000000000
 N   -2.109798321522   -3.519259506762    0.000000000000
 H   -1.914458321522   -2.496349506762    0.000000000000
 C   -1.090368321522   -4.371319506762    0.000000000000
 H   -0.045378321522   -4.086669506762    0.000000000000
CL   -0.918758321522   -1.532539506762    1.866180000000
CL   -0.918758321522   -1.532539506762   -1.866180000000
 N    3.040434056016    5.071610379305    0.000000000000
 H    2.845087230340    4.048696122049    0.000000000000
 C    2.021004341570    5.923663289461    0.000000000000
 H    0.976010077173    5.639009794354    0.000000000000
 N    2.542771998287    7.173071290397    0.000000000000
 H    1.992868851762    8.023237762062    0.000000000000
 C    3.922268585788    7.100388739731    0.000000000000
 H    4.554909673708    7.980763515594    0.000000000000
 C    4.229751319530    5.749045900301    0.000000000000
 H    5.188148797660    5.242777124193    0.000000000000
