22

 C   -3.025769989172   -5.604972999134    0.000000000000
 H   -3.658409989172   -6.485352999134    0.000000000000
 C   -3.333249989172   -4.253622999134    0.000000000000
 H   -4.291649989172   -3.747362999134    0.000000000000
 N   -1.646269989172   -5.677662999134    0.000000000000
 H   -1.096369989172   -6.527822999134    0.000000000000
 N   -2.143929989172   -3.576192999134    0.000000000000
 H   -1.948589989172   -2.553282999134    0.000000000000
 C   -1.124499989172   -4.428252999134    0.000000000000
 H   -0.079509989172   -4.143602999134    0.000000000000
CL   -0.952889989172   -1.589472999134    1.866180000000
CL   -0.952889989172   -1.589472999134   -1.866180000000
 N    3.109138554016    5.186213247610    0.000000000000
 H    2.913791728340    4.163298990354    0.000000000000
 C    2.089708839570    6.038266157766    0.000000000000
 H    1.044714575172    5.753612662659    0.000000000000
 N    2.611476496287    7.287674158703    0.000000000000
 H    2.061573349762    8.137840630367    0.000000000000
 C    3.990973083788    7.214991608036    0.000000000000
 H    4.623614171708    8.095366383899    0.000000000000
 C    4.298455817530    5.863648768606    0.000000000000
 H    5.256853295660    5.357379992498    0.000000000000
