22

 C   -3.059901656823   -5.661906491506    0.000000000000
 H   -3.692541656823   -6.542286491506    0.000000000000
 C   -3.367381656823   -4.310556491506    0.000000000000
 H   -4.325781656823   -3.804296491506    0.000000000000
 N   -1.680401656823   -5.734596491506    0.000000000000
 H   -1.130501656823   -6.584756491506    0.000000000000
 N   -2.178061656823   -3.633126491506    0.000000000000
 H   -1.982721656823   -2.610216491506    0.000000000000
 C   -1.158631656823   -4.485186491506    0.000000000000
 H   -0.113641656823   -4.200536491506    0.000000000000
CL   -0.987021656823   -1.646406491506    1.866180000000
CL   -0.987021656823   -1.646406491506   -1.866180000000
 N    3.177843052016    5.300816115916    0.000000000000
 H    2.982496226340    4.277901858659    0.000000000000
 C    2.158413337570    6.152869026071    0.000000000000
 H    1.113419073172    5.868215530964    0.000000000000
 N    2.680180994286    7.402277027008    0.000000000000
 H    2.130277847762    8.252443498672    0.000000000000
 C    4.059677581788    7.329594476341    0.000000000000
 H    4.692318669708    8.209969252204    0.000000000000
 C    4.367160315530    5.978251636912    0.000000000000
 H    5.325557793660    5.471982860803    0.000000000000
