22

 C   -3.076967490648   -5.690373237692    0.000000000000
 H   -3.709607490648   -6.570753237692    0.000000000000
 C   -3.384447490648   -4.339023237692    0.000000000000
 H   -4.342847490648   -3.832763237692    0.000000000000
 N   -1.697467490648   -5.763063237692    0.000000000000
 H   -1.147567490648   -6.613223237692    0.000000000000
 N   -2.195127490648   -3.661593237692    0.000000000000
 H   -1.999787490648   -2.638683237692    0.000000000000
 C   -1.175697490648   -4.513653237692    0.000000000000
 H   -0.130707490648   -4.229003237692    0.000000000000
CL   -1.004087490648   -1.674873237692    1.866180000000
CL   -1.004087490648   -1.674873237692   -1.866180000000
 N    3.212195301015    5.358117550068    0.000000000000
 H    3.016848475340    4.335203292812    0.000000000000
 C    2.192765586569    6.210170460224    0.000000000000
 H    1.147771322172    5.925516965117    0.000000000000
 N    2.714533243286    7.459578461160    0.000000000000
 H    2.164630096762    8.309744932825    0.000000000000
 C    4.094029830788    7.386895910494    0.000000000000
 H    4.726670918708    8.267270686357    0.000000000000
 C    4.401512564530    6.035553071064    0.000000000000
 H    5.359910042660    5.529284294956    0.000000000000
