22

 C   -3.145230825949   -5.804240222436    0.000000000000
 H   -3.777870825949   -6.684620222436    0.000000000000
 C   -3.452710825949   -4.452890222436    0.000000000000
 H   -4.411110825949   -3.946630222436    0.000000000000
 N   -1.765730825949   -5.876930222436    0.000000000000
 H   -1.215830825949   -6.727090222436    0.000000000000
 N   -2.263390825949   -3.775460222436    0.000000000000
 H   -2.068050825949   -2.752550222436    0.000000000000
 C   -1.243960825949   -4.627520222436    0.000000000000
 H   -0.198970825949   -4.342870222436    0.000000000000
CL   -1.072350825949   -1.788740222436    1.866180000000
CL   -1.072350825949   -1.788740222436   -1.866180000000
 N    3.349604297015    5.587323286678    0.000000000000
 H    3.154257471339    4.564409029422    0.000000000000
 C    2.330174582569    6.439376196834    0.000000000000
 H    1.285180318172    6.154722701727    0.000000000000
 N    2.851942239286    7.688784197771    0.000000000000
 H    2.302039092762    8.538950669435    0.000000000000
 C    4.231438826787    7.616101647104    0.000000000000
 H    4.864079914707    8.496476422967    0.000000000000
 C    4.538921560529    6.264758807674    0.000000000000
 H    5.497319038659    5.758490031566    0.000000000000
