22

 C   -3.196428327425   -5.889640460994    0.000000000000
 H   -3.829068327425   -6.770020460994    0.000000000000
 C   -3.503908327425   -4.538290460994    0.000000000000
 H   -4.462308327425   -4.032030460994    0.000000000000
 N   -1.816928327425   -5.962330460994    0.000000000000
 H   -1.267028327425   -6.812490460994    0.000000000000
 N   -2.314588327425   -3.860860460994    0.000000000000
 H   -2.119248327425   -2.837950460994    0.000000000000
 C   -1.295158327425   -4.712920460994    0.000000000000
 H   -0.250168327425   -4.428270460994    0.000000000000
CL   -1.123548327425   -1.874140460994    1.866180000000
CL   -1.123548327425   -1.874140460994   -1.866180000000
 N    3.452661044015    5.759227589136    0.000000000000
 H    3.257314218339    4.736313331880    0.000000000000
 C    2.433231329569    6.611280499292    0.000000000000
 H    1.388237065171    6.326627004185    0.000000000000
 N    2.954998986285    7.860688500228    0.000000000000
 H    2.405095839761    8.710854971893    0.000000000000
 C    4.334495573787    7.788005949562    0.000000000000
 H    4.967136661707    8.668380725425    0.000000000000
 C    4.641978307529    6.436663110132    0.000000000000
 H    5.600375785659    5.930394334024    0.000000000000
