22

 C   -3.230559995076   -5.946573953366    0.000000000000
 H   -3.863199995076   -6.826953953366    0.000000000000
 C   -3.538039995076   -4.595223953366    0.000000000000
 H   -4.496439995076   -4.088963953366    0.000000000000
 N   -1.851059995076   -6.019263953366    0.000000000000
 H   -1.301159995076   -6.869423953366    0.000000000000
 N   -2.348719995076   -3.917793953366    0.000000000000
 H   -2.153379995076   -2.894883953366    0.000000000000
 C   -1.329289995076   -4.769853953366    0.000000000000
 H   -0.284299995076   -4.485203953366    0.000000000000
CL   -1.157679995076   -1.931073953366    1.866180000000
CL   -1.157679995076   -1.931073953366   -1.866180000000
 N    3.521365542014    5.873830457441    0.000000000000
 H    3.326018716339    4.850916200185    0.000000000000
 C    2.501935827569    6.725883367597    0.000000000000
 H    1.456941563171    6.441229872490    0.000000000000
 N    3.023703484285    7.975291368533    0.000000000000
 H    2.473800337761    8.825457840198    0.000000000000
 C    4.403200071787    7.902608817867    0.000000000000
 H    5.035841159707    8.782983593730    0.000000000000
 C    4.710682805529    6.551265978437    0.000000000000
 H    5.669080283659    6.044997202329    0.000000000000
