22

 C   -3.281757496551   -6.031974191924    0.000000000000
 H   -3.914397496551   -6.912354191924    0.000000000000
 C   -3.589237496551   -4.680624191924    0.000000000000
 H   -4.547637496551   -4.174364191924    0.000000000000
 N   -1.902257496551   -6.104664191924    0.000000000000
 H   -1.352357496551   -6.954824191924    0.000000000000
 N   -2.399917496551   -4.003194191924    0.000000000000
 H   -2.204577496551   -2.980284191924    0.000000000000
 C   -1.380487496551   -4.855254191924    0.000000000000
 H   -0.335497496551   -4.570604191924    0.000000000000
CL   -1.208877496551   -2.016474191924    1.866180000000
CL   -1.208877496551   -2.016474191924   -1.866180000000
 N    3.624422289014    6.045734759899    0.000000000000
 H    3.429075463339    5.022820502643    0.000000000000
 C    2.604992574568    6.897787670055    0.000000000000
 H    1.559998310171    6.613134174947    0.000000000000
 N    3.126760231285    8.147195670991    0.000000000000
 H    2.576857084761    8.997362142656    0.000000000000
 C    4.506256818787    8.074513120325    0.000000000000
 H    5.138897906707    8.954887896187    0.000000000000
 C    4.813739552528    6.723170280895    0.000000000000
 H    5.772137030659    6.216901504787    0.000000000000
