22

 C   -3.332954998027   -6.117374430482    0.000000000000
 H   -3.965594998027   -6.997754430482    0.000000000000
 C   -3.640434998027   -4.766024430482    0.000000000000
 H   -4.598834998027   -4.259764430482    0.000000000000
 N   -1.953454998027   -6.190064430482    0.000000000000
 H   -1.403554998027   -7.040224430482    0.000000000000
 N   -2.451114998027   -4.088594430482    0.000000000000
 H   -2.255774998027   -3.065684430482    0.000000000000
 C   -1.431684998027   -4.940654430482    0.000000000000
 H   -0.386694998027   -4.656004430482    0.000000000000
CL   -1.260074998027   -2.101874430482    1.866180000000
CL   -1.260074998027   -2.101874430482   -1.866180000000
 N    3.727479036014    6.217639062357    0.000000000000
 H    3.532132210338    5.194724805100    0.000000000000
 C    2.708049321568    7.069691972512    0.000000000000
 H    1.663055057171    6.785038477405    0.000000000000
 N    3.229816978285    8.319099973449    0.000000000000
 H    2.679913831760    9.169266445113    0.000000000000
 C    4.609313565786    8.246417422782    0.000000000000
 H    5.241954653706    9.126792198645    0.000000000000
 C    4.916796299528    6.895074583353    0.000000000000
 H    5.875193777658    6.388805807244    0.000000000000
