22

 C   -3.367086665678   -6.174307922854    0.000000000000
 H   -3.999726665678   -7.054687922854    0.000000000000
 C   -3.674566665678   -4.822957922854    0.000000000000
 H   -4.632966665678   -4.316697922854    0.000000000000
 N   -1.987586665678   -6.246997922854    0.000000000000
 H   -1.437686665678   -7.097157922854    0.000000000000
 N   -2.485246665678   -4.145527922854    0.000000000000
 H   -2.289906665678   -3.122617922854    0.000000000000
 C   -1.465816665678   -4.997587922854    0.000000000000
 H   -0.420826665678   -4.712937922854    0.000000000000
CL   -1.294206665678   -2.158807922854    1.866180000000
CL   -1.294206665678   -2.158807922854   -1.866180000000
 N    3.796183534014    6.332241930662    0.000000000000
 H    3.600836708338    5.309327673405    0.000000000000
 C    2.776753819568    7.184294840817    0.000000000000
 H    1.731759555170    6.899641345710    0.000000000000
 N    3.298521476284    8.433702841754    0.000000000000
 H    2.748618329760    9.283869313419    0.000000000000
 C    4.678018063786    8.361020291088    0.000000000000
 H    5.310659151706    9.241395066950    0.000000000000
 C    4.985500797528    7.009677451658    0.000000000000
 H    5.943898275658    6.503408675549    0.000000000000
