16

 N   -2.742203105058   -0.161358171943    0.207173893945
 C   -1.510077372791   -0.791648451951    0.208128854253
 N   -1.239936436665   -2.112533926919    0.204664665306
 C    0.088192731798   -2.330727819669    0.220232093969
 H    0.402001014768   -3.377406552159    0.223611664660
 N    1.100542174839   -1.422746862528    0.234203364244
 C    0.788325430932   -0.111925779279    0.229556960344
 N    1.795952385734    0.812572858026    0.187735123413
 H    2.727403923121    0.482042749274    0.410193057546
 H    1.563214879707    1.772543613065    0.412545368853
 C   -0.577175409942    0.264768074588    0.220785872629
 N   -1.200704721133    1.503733775218    0.230664081647
 C   -2.500630208290    1.195654386857    0.222209228489
 H   -3.310683737077    1.922235187959    0.226257366352
 H   -3.645992782228   -0.621615295777    0.199570838012
 K    2.023269399859    1.037792948126   -0.759683942315
