16

 N   -2.747292867700   -0.166400983213    0.228387168213
 C   -1.515167135433   -0.796691263221    0.229342128521
 N   -1.245026199307   -2.117576738189    0.225877939574
 C    0.083102969156   -2.335770630939    0.241445368237
 H    0.396911252126   -3.382449363429    0.244824938928
 N    1.095452412197   -1.427789673798    0.255416638512
 C    0.783235668290   -0.116968590549    0.250770234612
 N    1.790862623092    0.807530046756    0.208948397681
 H    2.722314160479    0.476999938004    0.431406331814
 H    1.558125117065    1.767500801795    0.433758643121
 C   -0.582265172584    0.259725263318    0.241999146897
 N   -1.205794483775    1.498690963948    0.251877355915
 C   -2.505719970932    1.190611575587    0.243422502757
 H   -3.315773499719    1.917192376689    0.247470640620
 H   -3.651082544870   -0.626658107047    0.220784112280
 K    2.040911338630    1.055272145866   -0.833212574619
