16

 N   -2.752382630341   -0.171443794483    0.249600442481
 C   -1.520256898074   -0.801734074491    0.250555402789
 N   -1.250115961948   -2.122619549459    0.247091213842
 C    0.078013206515   -2.340813442209    0.262658642505
 H    0.391821489485   -3.387492174699    0.266038213196
 N    1.090362649556   -1.432832485068    0.276629912780
 C    0.778145905649   -0.122011401819    0.271983508880
 N    1.785772860451    0.802487235486    0.230161671949
 H    2.717224397838    0.471957126734    0.452619606082
 H    1.553035354424    1.762457990525    0.454971917389
 C   -0.587354935225    0.254682452048    0.263212421165
 N   -1.210884246416    1.493648152678    0.273090630183
 C   -2.510809733573    1.185568764317    0.264635777025
 H   -3.320863262360    1.912149565419    0.268683914888
 H   -3.656172307511   -0.631700918317    0.241997386548
 K    2.058553277401    1.072751343606   -0.906741206924
