16

 N   -2.762562155624   -0.181529417023    0.292026991018
 C   -1.530436423357   -0.811819697031    0.292981951326
 N   -1.260295487231   -2.132705171999    0.289517762379
 C    0.067833681232   -2.350899064749    0.305085191042
 H    0.381641964202   -3.397577797239    0.308464761733
 N    1.080183124273   -1.442918107608    0.319056461317
 C    0.767966380366   -0.132097024359    0.314410057417
 N    1.775593335168    0.792401612946    0.272588220486
 H    2.707044872555    0.461871504194    0.495046154619
 H    1.542855829141    1.752372367985    0.497398465926
 C   -0.597534460508    0.244596829508    0.305638969702
 N   -1.221063771699    1.483562530138    0.315517178720
 C   -2.520989258856    1.175483141777    0.307062325562
 H   -3.331042787643    1.902063942879    0.311110463425
 H   -3.666351832794   -0.641786540857    0.284423935085
 K    2.093837154944    1.107709739086   -1.053798471533
