16

 N   -2.772741680907   -0.191615039562    0.334453539554
 C   -1.540615948640   -0.821905319570    0.335408499862
 N   -1.270475012514   -2.142790794538    0.331944310915
 C    0.057654155949   -2.360984687288    0.347511739578
 H    0.371462438919   -3.407663419778    0.350891310269
 N    1.070003598990   -1.453003730147    0.361483009853
 C    0.757786855083   -0.142182646898    0.356836605953
 N    1.765413809885    0.782315990407    0.315014769022
 H    2.696865347272    0.451785881655    0.537472703155
 H    1.532676303858    1.742286745446    0.539825014462
 C   -0.607713985791    0.234511206969    0.348065518238
 N   -1.231243296982    1.473476907599    0.357943727256
 C   -2.531168784139    1.165397519238    0.349488874098
 H   -3.341222312926    1.891978320340    0.353537011961
 H   -3.676531358077   -0.651872163396    0.326850483621
 K    2.129121032486    1.142668134566   -1.200855736143
