16

 N   -2.777831443548   -0.196657850832    0.355666813822
 C   -1.545705711281   -0.826948130840    0.356621774130
 N   -1.275564775155   -2.147833605808    0.353157585183
 C    0.052564393308   -2.366027498558    0.368725013846
 H    0.366372676278   -3.412706231048    0.372104584537
 N    1.064913836349   -1.458046541417    0.382696284121
 C    0.752697092442   -0.147225458168    0.378049880221
 N    1.760324047244    0.777273179137    0.336228043290
 H    2.691775584631    0.446743070385    0.558685977423
 H    1.527586541217    1.737243934176    0.561038288730
 C   -0.612803748432    0.229468395699    0.369278792506
 N   -1.236333059623    1.468434096329    0.379157001524
 C   -2.536258546780    1.160354707968    0.370702148366
 H   -3.346312075567    1.886935509070    0.374750286229
 H   -3.681621120718   -0.656914974666    0.348063757889
 K    2.146762971257    1.160147332306   -1.274384368447
