16

 N   -2.782921206189   -0.201700662102    0.376880088090
 C   -1.550795473922   -0.831990942110    0.377835048398
 N   -1.280654537796   -2.152876417078    0.374370859451
 C    0.047474630667   -2.371070309828    0.389938288114
 H    0.361282913637   -3.417749042318    0.393317858805
 N    1.059824073708   -1.463089352687    0.403909558389
 C    0.747607329801   -0.152268269438    0.399263154489
 N    1.755234284603    0.772230367867    0.357441317558
 H    2.686685821990    0.441700259115    0.579899251691
 H    1.522496778576    1.732201122906    0.582251562998
 C   -0.617893511073    0.224425584429    0.390492066774
 N   -1.241422822264    1.463391285059    0.400370275792
 C   -2.541348309421    1.155311896698    0.391915422634
 H   -3.351401838208    1.881892697800    0.395963560497
 H   -3.686710883359   -0.661957785936    0.369277032157
 K    2.164404910029    1.177626530046   -1.347913000752
