16

 N   -3.200281742781   -0.615211186234    2.116368578076
 C   -1.968156010514   -1.245501466242    2.117323538384
 N   -1.698015074388   -2.566386941210    2.113859349437
 C   -0.369885905925   -2.784580833960    2.129426778100
 H   -0.056077622955   -3.831259566450    2.132806348791
 N    0.642463537116   -1.876599876819    2.143398048375
 C    0.330246793209   -0.565778793570    2.138751644475
 N    1.337873748011    0.358719843735    2.096929807544
 H    2.269325285398    0.028189734983    2.319387741677
 H    1.105136241984    1.318690598774    2.321740052984
 C   -1.035254047665   -0.189084939703    2.129980556760
 N   -1.658783358856    1.049880760927    2.139858765778
 C   -2.958708846013    0.741801372566    2.131403912620
 H   -3.768762374800    1.468382173668    2.135452050483
 H   -4.104071419951   -1.075468310068    2.108765522143
 K    3.611043889266    2.610920744730   -7.377260849735
