16

 N   -2.793100731472   -0.211786284642    0.419306636626
 C   -1.560974999205   -0.842076564650    0.420261596934
 N   -1.290834063079   -2.162962039618    0.416797407987
 C    0.037295105384   -2.381155932368    0.432364836650
 H    0.351103388354   -3.427834664858    0.435744407341
 N    1.049644548425   -1.473174975227    0.446336106925
 C    0.737427804518   -0.162353891978    0.441689703025
 N    1.745054759320    0.762144745327    0.399867866094
 H    2.676506296707    0.431614636575    0.622325800227
 H    1.512317253293    1.722115500366    0.624678111534
 C   -0.628073036356    0.214339961889    0.432918615310
 N   -1.251602347547    1.453305662519    0.442796824328
 C   -2.551527834704    1.145226274158    0.434341971170
 H   -3.361581363491    1.871807075260    0.438390109033
 H   -3.696890408642   -0.672043408476    0.411703580693
 K    2.199688787571    1.212584925526   -1.494970265361
