16

 N   -2.798190494113   -0.216829095912    0.440519910894
 C   -1.566064761846   -0.847119375920    0.441474871202
 N   -1.295923825720   -2.168004850888    0.438010682255
 C    0.032205342743   -2.386198743638    0.453578110918
 H    0.346013625713   -3.432877476128    0.456957681609
 N    1.044554785784   -1.478217786497    0.467549381193
 C    0.732338041877   -0.167396703248    0.462902977293
 N    1.739964996679    0.757101934057    0.421081140362
 H    2.671416534066    0.426571825305    0.643539074495
 H    1.507227490652    1.717072689096    0.645891385802
 C   -0.633162798997    0.209297150619    0.454131889578
 N   -1.256692110188    1.448262851249    0.464010098596
 C   -2.556617597345    1.140183462888    0.455555245438
 H   -3.366671126132    1.866764263990    0.459603383301
 H   -3.701980171283   -0.677086219746    0.432916854961
 K    2.217330726342    1.230064123266   -1.568498897666
