16

 N   -2.808370019396   -0.226914718452    0.482946459431
 C   -1.576244287129   -0.857204998460    0.483901419739
 N   -1.306103351003   -2.178090473428    0.480437230792
 C    0.022025817460   -2.396284366178    0.496004659455
 H    0.335834100430   -3.442963098668    0.499384230146
 N    1.034375260501   -1.488303409037    0.509975929730
 C    0.722158516594   -0.177482325788    0.505329525830
 N    1.729785471396    0.747016311517    0.463507688899
 H    2.661237008783    0.416486202765    0.685965623032
 H    1.497047965369    1.706987066556    0.688317934339
 C   -0.643342324280    0.199211528079    0.496558438115
 N   -1.266871635471    1.438177228709    0.506436647133
 C   -2.566797122628    1.130097840348    0.497981793975
 H   -3.376850651415    1.856678641450    0.502029931838
 H   -3.712159696566   -0.687171842286    0.475343403498
 K    2.252614603885    1.265022518746   -1.715556162275
