16

 N   -2.813459782037   -0.231957529722    0.504159733699
 C   -1.581334049770   -0.862247809730    0.505114694007
 N   -1.311193113644   -2.183133284698    0.501650505060
 C    0.016936054819   -2.401327177448    0.517217933723
 H    0.330744337789   -3.448005909938    0.520597504414
 N    1.029285497860   -1.493346220307    0.531189203998
 C    0.717068753953   -0.182525137058    0.526542800098
 N    1.724695708755    0.741973500247    0.484720963167
 H    2.656147246142    0.411443391495    0.707178897300
 H    1.491958202728    1.701944255286    0.709531208607
 C   -0.648432086921    0.194168716809    0.517771712383
 N   -1.271961398112    1.433134417439    0.527649921401
 C   -2.571886885269    1.125055029078    0.519195068243
 H   -3.381940414056    1.851635830180    0.523243206106
 H   -3.717249459207   -0.692214653556    0.496556677766
 K    2.270256542656    1.282501716486   -1.789084794580
