16

 N   -2.818549544679   -0.237000340992    0.525373007967
 C   -1.586423812412   -0.867290621000    0.526327968275
 N   -1.316282876286   -2.188176095968    0.522863779328
 C    0.011846292177   -2.406369988718    0.538431207991
 H    0.325654575147   -3.453048721208    0.541810778682
 N    1.024195735218   -1.498389031577    0.552402478266
 C    0.711978991311   -0.187567948328    0.547756074366
 N    1.719605946113    0.736930688977    0.505934237435
 H    2.651057483500    0.406400580225    0.728392171568
 H    1.486868440086    1.696901444016    0.730744482875
 C   -0.653521849563    0.189125905539    0.538984986651
 N   -1.277051160754    1.428091606169    0.548863195669
 C   -2.576976647911    1.120012217808    0.540408342511
 H   -3.387030176698    1.846593018910    0.544456480374
 H   -3.722339221849   -0.697257464826    0.517769952034
 K    2.287898481427    1.299980914226   -1.862613426885
