16

 N   -2.828729069962   -0.247085963531    0.567799556503
 C   -1.596603337695   -0.877376243539    0.568754516811
 N   -1.326462401569   -2.198261718507    0.565290327864
 C    0.001666766894   -2.416455611257    0.580857756527
 H    0.315475049864   -3.463134343747    0.584237327218
 N    1.014016209935   -1.508474654116    0.594829026802
 C    0.701799466028   -0.197653570867    0.590182622902
 N    1.709426420830    0.726845066438    0.548360785971
 H    2.640877958217    0.396314957686    0.770818720104
 H    1.476688914803    1.686815821477    0.773171031411
 C   -0.663701374846    0.179040283000    0.581411535187
 N   -1.287230686037    1.418005983630    0.591289744205
 C   -2.587156173194    1.109926595269    0.582834891047
 H   -3.397209701981    1.836507396371    0.586883028910
 H   -3.732518747132   -0.707343087365    0.560196500570
 K    2.323182358969    1.334939309706   -2.009670691494
