16

 N   -2.833818832603   -0.252128774801    0.589012830771
 C   -1.601693100336   -0.882419054809    0.589967791079
 N   -1.331552164210   -2.203304529777    0.586503602132
 C   -0.003422995747   -2.421498422527    0.602071030795
 H    0.310385287223   -3.468177155017    0.605450601486
 N    1.008926447294   -1.513517465386    0.616042301070
 C    0.696709703387   -0.202696382137    0.611395897170
 N    1.704336658189    0.721802255168    0.569574060239
 H    2.635788195576    0.391272146416    0.792031994372
 H    1.471599152162    1.681773010207    0.794384305679
 C   -0.668791137487    0.173997471730    0.602624809455
 N   -1.292320448678    1.412963172360    0.612503018473
 C   -2.592245935835    1.104883783999    0.604048165315
 H   -3.402299464622    1.831464585101    0.608096303178
 H   -3.737608509773   -0.712385898635    0.581409774838
 K    2.340824297740    1.352418507446   -2.083199323799
