16

 N   -2.843998357886   -0.262214397341    0.631439379308
 C   -1.611872625619   -0.892504677349    0.632394339616
 N   -1.341731689493   -2.213390152317    0.628930150669
 C   -0.013602521030   -2.431584045067    0.644497579332
 H    0.300205761940   -3.478262777557    0.647877150023
 N    0.998746922011   -1.523603087926    0.658468849607
 C    0.686530178104   -0.212782004677    0.653822445707
 N    1.694157132906    0.711716632628    0.612000608776
 H    2.625608670293    0.381186523876    0.834458542909
 H    1.461419626879    1.671687387667    0.836810854216
 C   -0.678970662770    0.163911849190    0.645051357992
 N   -1.302499973961    1.402877549820    0.654929567010
 C   -2.602425461118    1.094798161459    0.646474713852
 H   -3.412478989905    1.821378962561    0.650522851715
 H   -3.747788035056   -0.722471521175    0.623836323375
 K    2.376108175283    1.387376902927   -2.230256588408
