16

 N   -2.849088120527   -0.267257208611    0.652652653576
 C   -1.616962388260   -0.897547488619    0.653607613884
 N   -1.346821452134   -2.218432963587    0.650143424937
 C   -0.018692283671   -2.436626856337    0.665710853600
 H    0.295115999299   -3.483305588827    0.669090424291
 N    0.993657159370   -1.528645899196    0.679682123875
 C    0.681440415463   -0.217824815947    0.675035719975
 N    1.689067370265    0.706673821358    0.633213883044
 H    2.620518907652    0.376143712606    0.855671817177
 H    1.456329864238    1.666644576397    0.858024128484
 C   -0.684060425411    0.158869037920    0.666264632260
 N   -1.307589736602    1.397834738550    0.676142841278
 C   -2.607515223759    1.089755350189    0.667687988120
 H   -3.417568752546    1.816336151291    0.671736125983
 H   -3.752877797697   -0.727514332445    0.645049597643
 K    2.393750114054    1.404856100667   -2.303785220713
