16

 N   -2.854177883168   -0.272300019881    0.673865927844
 C   -1.622052150901   -0.902590299889    0.674820888152
 N   -1.351911214775   -2.223475774857    0.671356699205
 C   -0.023782046312   -2.441669667607    0.686924127868
 H    0.290026236658   -3.488348400097    0.690303698559
 N    0.988567396729   -1.533688710466    0.700895398143
 C    0.676350652822   -0.222867627217    0.696248994243
 N    1.683977607624    0.701631010088    0.654427157312
 H    2.615429145011    0.371100901336    0.876885091445
 H    1.451240101597    1.661601765127    0.879237402752
 C   -0.689150188052    0.153826226650    0.687477906528
 N   -1.312679499243    1.392791927280    0.697356115546
 C   -2.612604986400    1.084712538919    0.688901262388
 H   -3.422658515187    1.811293340021    0.692949400251
 H   -3.757967560338   -0.732557143715    0.666262871911
 K    2.411392052825    1.422335298407   -2.377313853017
