16

 N   -2.859267645810   -0.277342831151    0.695079202112
 C   -1.627141913543   -0.907633111159    0.696034162420
 N   -1.357000977417   -2.228518586127    0.692569973473
 C   -0.028871808954   -2.446712478877    0.708137402136
 H    0.284936474016   -3.493391211367    0.711516972827
 N    0.983477634087   -1.538731521736    0.722108672411
 C    0.671260890180   -0.227910438487    0.717462268511
 N    1.678887844982    0.696588198818    0.675640431580
 H    2.610339382369    0.366058090066    0.898098365713
 H    1.446150338955    1.656558953857    0.900450677020
 C   -0.694239950694    0.148783415380    0.708691180796
 N   -1.317769261885    1.387749116010    0.718569389814
 C   -2.617694749042    1.079669727649    0.710114536656
 H   -3.427748277829    1.806250528751    0.714162674519
 H   -3.763057322980   -0.737599954985    0.687476146179
 K    2.429033991596    1.439814496147   -2.450842485322
