16

 N   -2.874536933734   -0.292471264960    0.758719024916
 C   -1.642411201467   -0.922761544968    0.759673985224
 N   -1.372270265341   -2.243647019936    0.756209796277
 C   -0.044141096878   -2.461840912686    0.771777224940
 H    0.269667186092   -3.508519645176    0.775156795631
 N    0.968208346163   -1.553859955545    0.785748495215
 C    0.655991602256   -0.243038872296    0.781102091315
 N    1.663618557058    0.681459765009    0.739280254384
 H    2.595070094445    0.350929656257    0.961738188517
 H    1.430881051031    1.641430520048    0.964090499824
 C   -0.709509238618    0.133654981571    0.772331003600
 N   -1.333038549809    1.372620682201    0.782209212618
 C   -2.632964036966    1.064541293840    0.773754359460
 H   -3.443017565753    1.791122094942    0.777802497323
 H   -3.778326610904   -0.752728388794    0.751115968983
 K    2.481959807910    1.492252089367   -2.671428382236
