16

 N   -2.879626696375   -0.297514076230    0.779932299184
 C   -1.647500964108   -0.927804356238    0.780887259492
 N   -1.377360027982   -2.248689831206    0.777423070545
 C   -0.049230859519   -2.466883723956    0.792990499208
 H    0.264577423451   -3.513562456446    0.796370069899
 N    0.963118583522   -1.558902766815    0.806961769483
 C    0.650901839615   -0.248081683566    0.802315365583
 N    1.658528794417    0.676416953739    0.760493528652
 H    2.589980331804    0.345886844987    0.982951462785
 H    1.425791288390    1.636387708778    0.985303774092
 C   -0.714599001259    0.128612170301    0.793544277868
 N   -1.338128312450    1.367577870931    0.803422486886
 C   -2.638053799607    1.059498482570    0.794967633728
 H   -3.448107328394    1.786079283672    0.799015771591
 H   -3.783416373545   -0.757771200064    0.772329243251
 K    2.499601746681    1.509731287107   -2.744957014541
