16

 N   -2.905075509582   -0.322728132580    0.885998670525
 C   -1.672949777315   -0.953018412588    0.886953630833
 N   -1.402808841189   -2.273903887556    0.883489441886
 C   -0.074679672726   -2.492097780306    0.899056870549
 H    0.239128610244   -3.538776512796    0.902436441240
 N    0.937669770315   -1.584116823165    0.913028140824
 C    0.625453026408   -0.273295739916    0.908381736924
 N    1.633079981210    0.651202897389    0.866559899993
 H    2.564531518597    0.320672788637    1.089017834126
 H    1.400342475183    1.611173652428    1.091370145433
 C   -0.740047814466    0.103398113951    0.899610649209
 N   -1.363577125657    1.342363814581    0.909488858227
 C   -2.663502612814    1.034284426220    0.901034005069
 H   -3.473556141601    1.760865227322    0.905082142932
 H   -3.808865186752   -0.782985256414    0.878395614592
 K    2.587811440537    1.597127275807   -3.112600176064
