16

 N   -2.910165272223   -0.327770943850    0.907211944793
 C   -1.678039539956   -0.958061223858    0.908166905101
 N   -1.407898603830   -2.278946698826    0.904702716154
 C   -0.079769435367   -2.497140591576    0.920270144817
 H    0.234038847603   -3.543819324066    0.923649715508
 N    0.932580007674   -1.589159634435    0.934241415092
 C    0.620363263767   -0.278338551186    0.929595011192
 N    1.627990218569    0.646160086119    0.887773174261
 H    2.559441755956    0.315629977367    1.110231108394
 H    1.395252712542    1.606130841158    1.112583419701
 C   -0.745137577107    0.098355302681    0.920823923477
 N   -1.368666888298    1.337321003311    0.930702132495
 C   -2.668592375455    1.029241614950    0.922247279337
 H   -3.478645904242    1.755822416052    0.926295417200
 H   -3.813954949393   -0.788028067684    0.899608888860
 K    2.605453379308    1.614606473547   -3.186128808369
