16

 N   -2.920344797506   -0.337856566390    0.949638493329
 C   -1.688219065239   -0.968146846398    0.950593453637
 N   -1.418078129113   -2.289032321366    0.947129264690
 C   -0.089948960650   -2.507226214116    0.962696693353
 H    0.223859322320   -3.553904946606    0.966076264044
 N    0.922400482391   -1.599245256975    0.976667963628
 C    0.610183738484   -0.288424173726    0.972021559728
 N    1.617810693286    0.636074463579    0.930199722797
 H    2.549262230673    0.305544354827    1.152657656930
 H    1.385073187259    1.596045218618    1.155009968237
 C   -0.755317102390    0.088269680141    0.963250472013
 N   -1.378846413581    1.327235380771    0.973128681031
 C   -2.678771900738    1.019155992410    0.964673827873
 H   -3.488825429525    1.745736793512    0.968721965736
 H   -3.824134474676   -0.798113690224    0.942035437396
 K    2.640737256851    1.649564869027   -3.333186072978
