16

 N   -2.930524322789   -0.347942188929    0.992065041866
 C   -1.698398590522   -0.978232468937    0.993020002174
 N   -1.428257654396   -2.299117943905    0.989555813227
 C   -0.100128485933   -2.517311836655    1.005123241890
 H    0.213679797037   -3.563990569145    1.008502812581
 N    0.912220957108   -1.609330879514    1.019094512165
 C    0.600004213201   -0.298509796265    1.014448108265
 N    1.607631168003    0.625988841040    0.972626271334
 H    2.539082705390    0.295458732288    1.195084205467
 H    1.374893661976    1.585959596079    1.197436516774
 C   -0.765496627673    0.078184057602    1.005677020550
 N   -1.389025938864    1.317149758232    1.015555229568
 C   -2.688951426021    1.009070369871    1.007100376410
 H   -3.499004954808    1.735651170973    1.011148514273
 H   -3.834313999959   -0.808199312763    0.984461985933
 K    2.676021134393    1.684523264507   -3.480243337587
