16

 N   -2.940703848071   -0.358027811469    1.034491590402
 C   -1.708578115804   -0.988318091477    1.035446550710
 N   -1.438437179678   -2.309203566445    1.031982361763
 C   -0.110308011215   -2.527397459195    1.047549790426
 H    0.203500271755   -3.574076191685    1.050929361117
 N    0.902041431826   -1.619416502054    1.061521060701
 C    0.589824687919   -0.308595418805    1.056874656801
 N    1.597451642721    0.615903218500    1.015052819870
 H    2.528903180108    0.285373109748    1.237510754003
 H    1.364714136694    1.575873973539    1.239863065310
 C   -0.775676152955    0.068098435062    1.048103569086
 N   -1.399205464146    1.307064135692    1.057981778104
 C   -2.699130951303    0.998984747331    1.049526924946
 H   -3.509184480090    1.725565548433    1.053575062809
 H   -3.844493525241   -0.818284935303    1.026888534469
 K    2.711305011935    1.719481659988   -3.627300602197
