16

 N   -2.955973135996   -0.373156245279    1.098131413206
 C   -1.723847403729   -1.003446525287    1.099086373514
 N   -1.453706467603   -2.324332000255    1.095622184567
 C   -0.125577299140   -2.542525893005    1.111189613230
 H    0.188230983830   -3.589204625495    1.114569183921
 N    0.886772143901   -1.634544935864    1.125160883505
 C    0.574555399994   -0.323723852615    1.120514479605
 N    1.582182354796    0.600774784690    1.078692642674
 H    2.513633892183    0.270244675938    1.301150576807
 H    1.349444848769    1.560745539729    1.303502888114
 C   -0.790945440880    0.052970001252    1.111743391890
 N   -1.414474752071    1.291935701882    1.121621600908
 C   -2.714400239228    0.983856313521    1.113166747750
 H   -3.524453768015    1.710437114623    1.117214885613
 H   -3.859762813166   -0.833413369113    1.090528357273
 K    2.764230828249    1.771919253208   -3.847886499111
