16

 N   -2.971242423920   -0.388284679089    1.161771236010
 C   -1.739116691653   -1.018574959097    1.162726196318
 N   -1.468975755527   -2.339460434065    1.159262007371
 C   -0.140846587064   -2.557654326815    1.174829436034
 H    0.172961695906   -3.604333059305    1.178209006725
 N    0.871502855977   -1.649673369674    1.188800706309
 C    0.559286112070   -0.338852286425    1.184154302409
 N    1.566913066872    0.585646350880    1.142332465478
 H    2.498364604259    0.255116242128    1.364790399611
 H    1.334175560845    1.545617105919    1.367142710918
 C   -0.806214728804    0.037841567442    1.175383214694
 N   -1.429744039995    1.276807268072    1.185261423712
 C   -2.729669527152    0.968727879711    1.176806570554
 H   -3.539723055939    1.695308680813    1.180854708417
 H   -3.875032101090   -0.848541802923    1.154168180077
 K    2.817156644563    1.824356846428   -4.068472396025
