16

 N   -3.017050287692   -0.433669980518    1.352690704424
 C   -1.784924555425   -1.063960260526    1.353645664732
 N   -1.514783619299   -2.384845735494    1.350181475785
 C   -0.186654450836   -2.603039628244    1.365748904448
 H    0.127153832134   -3.649718360734    1.369128475139
 N    0.825694992205   -1.695058671103    1.379720174723
 C    0.513478248298   -0.384237587854    1.375073770823
 N    1.521105203100    0.540261049451    1.333251933892
 H    2.452556740487    0.209730940699    1.555709868025
 H    1.288367697073    1.500231804490    1.558062179332
 C   -0.852022592576   -0.007543733987    1.366302683108
 N   -1.475551903767    1.231421966643    1.376180892126
 C   -2.775477390924    0.923342578282    1.367726038968
 H   -3.585530919711    1.649923379384    1.371774176831
 H   -3.920839964862   -0.893927104352    1.345087648491
 K    2.975934093503    1.981669626088   -4.730230086767
