16

 N   -3.022140050333   -0.438712791788    1.373903978692
 C   -1.790014318066   -1.069003071796    1.374858939000
 N   -1.519873381940   -2.389888546764    1.371394750053
 C   -0.191744213477   -2.608082439514    1.386962178716
 H    0.122064069493   -3.654761172004    1.390341749407
 N    0.820605229564   -1.700101482373    1.400933448991
 C    0.508388485657   -0.389280399124    1.396287045091
 N    1.516015440459    0.535218238181    1.354465208160
 H    2.447466977846    0.204688129429    1.576923142293
 H    1.283277934432    1.495188993220    1.579275453600
 C   -0.857112355217   -0.012586545257    1.387515957376
 N   -1.480641666408    1.226379155373    1.397394166394
 C   -2.780567153565    0.918299767012    1.388939313236
 H   -3.590620682352    1.644880568114    1.392987451099
 H   -3.925929727503   -0.898969915622    1.366300922759
 K    2.993576032275    1.999148823828   -4.803758719071
