16

 N   -3.052678626181   -0.468969659407    1.501183624300
 C   -1.820552893914   -1.099259939415    1.502138584608
 N   -1.550411957788   -2.420145414383    1.498674395661
 C   -0.222282789325   -2.638339307133    1.514241824324
 H    0.091525493645   -3.685018039623    1.517621395015
 N    0.790066653716   -1.730358349992    1.528213094599
 C    0.477849909809   -0.419537266743    1.523566690699
 N    1.485476864611    0.504961370562    1.481744853768
 H    2.416928401998    0.174431261810    1.704202787901
 H    1.252739358584    1.464932125601    1.706555099208
 C   -0.887650931065   -0.042843412876    1.514795602984
 N   -1.511180242256    1.196122287754    1.524673812002
 C   -2.811105729413    0.888042899393    1.516218958844
 H   -3.621159258200    1.614623700495    1.520267096707
 H   -3.956468303351   -0.929226783241    1.493580568367
 K    3.099427664902    2.104024010269   -5.244930512899
