16

 N   -3.057768388823   -0.474012470677    1.522396898568
 C   -1.825642656556   -1.104302750685    1.523351858876
 N   -1.555501720430   -2.425188225653    1.519887669929
 C   -0.227372551967   -2.643382118403    1.535455098592
 H    0.086435731003   -3.690060850893    1.538834669283
 N    0.784976891074   -1.735401161262    1.549426368867
 C    0.472760147167   -0.424580078013    1.544779964967
 N    1.480387101969    0.499918559292    1.502958128036
 H    2.411838639356    0.169388450540    1.725416062169
 H    1.247649595942    1.459889314331    1.727768373476
 C   -0.892740693707   -0.047886224146    1.536008877252
 N   -1.516270004898    1.191079476484    1.545887086270
 C   -2.816195492055    0.883000088123    1.537432233112
 H   -3.626249020842    1.609580889225    1.541480370975
 H   -3.961558065993   -0.934269594511    1.514793842635
 K    3.117069603673    2.121503208009   -5.318459145204
