16

 N   -3.062858151464   -0.479055281947    1.543610172837
 C   -1.830732419197   -1.109345561955    1.544565133145
 N   -1.560591483071   -2.430231036923    1.541100944198
 C   -0.232462314608   -2.648424929673    1.556668372861
 H    0.081345968362   -3.695103662163    1.560047943552
 N    0.779887128433   -1.740443972532    1.570639643136
 C    0.467670384526   -0.429622889283    1.565993239236
 N    1.475297339328    0.494875748022    1.524171402305
 H    2.406748876715    0.164345639270    1.746629336438
 H    1.242559833301    1.454846503061    1.748981647745
 C   -0.897830456348   -0.052929035416    1.557222151521
 N   -1.521359767539    1.186036665214    1.567100360539
 C   -2.821285254696    0.877957276853    1.558645507381
 H   -3.631338783483    1.604538077955    1.562693645244
 H   -3.966647828634   -0.939312405781    1.536007116904
 K    3.134711542444    2.138982405749   -5.391987777509
