16

 N   -3.067947914106   -0.484098093217    1.564823447105
 C   -1.835822181839   -1.114388373225    1.565778407413
 N   -1.565681245713   -2.435273848193    1.562314218466
 C   -0.237552077250   -2.653467740943    1.577881647129
 H    0.076256205720   -3.700146473433    1.581261217820
 N    0.774797365791   -1.745486783802    1.591852917404
 C    0.462580621884   -0.434665700553    1.587206513504
 N    1.470207576686    0.489832936752    1.545384676573
 H    2.401659114073    0.159302828000    1.767842610706
 H    1.237470070659    1.449803691791    1.770194922013
 C   -0.902920218990   -0.057971846686    1.578435425789
 N   -1.526449530181    1.180993853944    1.588313634807
 C   -2.826375017338    0.872914465583    1.579858781649
 H   -3.636428546125    1.599495266685    1.583906919512
 H   -3.971737591276   -0.944355217051    1.557220391172
 K    3.152353481215    2.156461603489   -5.465516409813
