16

 N   -3.078127439388   -0.494183715756    1.607249995641
 C   -1.846001707121   -1.124473995764    1.608204955949
 N   -1.575860770995   -2.445359470732    1.604740767002
 C   -0.247731602532   -2.663553363482    1.620308195665
 H    0.066076680438   -3.710232095972    1.623687766356
 N    0.764617840509   -1.755572406341    1.634279465940
 C    0.452401096602   -0.444751323092    1.629633062040
 N    1.460028051404    0.479747314213    1.587811225109
 H    2.391479588791    0.149217205461    1.810269159242
 H    1.227290545377    1.439718069252    1.812621470549
 C   -0.913099744272   -0.068057469225    1.620861974325
 N   -1.536629055463    1.170908231405    1.630740183343
 C   -2.836554542620    0.862828843044    1.622285330185
 H   -3.646608071407    1.589409644146    1.626333468048
 H   -3.981917116558   -0.954440839590    1.599646939708
 K    3.187637358758    2.191419998969   -5.612573674423
