16

 N   -3.093396727312   -0.509312149566    1.670889818445
 C   -1.861270995045   -1.139602429574    1.671844778753
 N   -1.591130058919   -2.460487904542    1.668380589806
 C   -0.263000890456   -2.678681797292    1.683948018469
 H    0.050807392514   -3.725360529782    1.687327589160
 N    0.749348552585   -1.770700840151    1.697919288744
 C    0.437131808678   -0.459879756902    1.693272884844
 N    1.444758763480    0.464618880403    1.651451047913
 H    2.376210300867    0.134088771651    1.873908982046
 H    1.212021257453    1.424589635442    1.876261293353
 C   -0.928369032196   -0.083185903035    1.684501797129
 N   -1.551898343387    1.155779797595    1.694380006147
 C   -2.851823830544    0.847700409234    1.685925152989
 H   -3.661877359331    1.574281210336    1.689973290852
 H   -3.997186404482   -0.969569273400    1.663286762512
 K    3.240563175071    2.243857592189   -5.833159571337
