16

 N   -3.098486489954   -0.514354960836    1.692103092713
 C   -1.866360757687   -1.144645240844    1.693058053021
 N   -1.596219821561   -2.465530715812    1.689593864074
 C   -0.268090653098   -2.683724608562    1.705161292737
 H    0.045717629872   -3.730403341052    1.708540863428
 N    0.744258789943   -1.775743651421    1.719132563012
 C    0.432042046036   -0.464922568172    1.714486159112
 N    1.439669000838    0.459576069133    1.672664322181
 H    2.371120538225    0.129045960381    1.895122256314
 H    1.206931494811    1.419546824172    1.897474567621
 C   -0.933458794838   -0.088228714305    1.705715071397
 N   -1.556988106029    1.150736986325    1.715593280415
 C   -2.856913593186    0.842657597964    1.707138427257
 H   -3.666967121973    1.569238399066    1.711186565120
 H   -4.002276167124   -0.974612084670    1.684500036780
 K    3.258205113842    2.261336789929   -5.906688203641
