16

 N   -3.139204591085   -0.554697450995    1.861809286858
 C   -1.907078858818   -1.184987731003    1.862764247166
 N   -1.636937922692   -2.505873205971    1.859300058219
 C   -0.308808754229   -2.724067098721    1.874867486882
 H    0.004999528741   -3.770745831211    1.878247057573
 N    0.703540688812   -1.816086141580    1.888838757157
 C    0.391323944905   -0.505265058331    1.884192353257
 N    1.398950899707    0.419233578974    1.842370516326
 H    2.330402437094    0.088703470222    2.064828450459
 H    1.166213393680    1.379204334013    2.067180761766
 C   -0.974176895969   -0.128571204464    1.875421265542
 N   -1.597706207160    1.110394496166    1.885299474560
 C   -2.897631694317    0.802315107805    1.876844621402
 H   -3.707685223104    1.528895908907    1.880892759265
 H   -4.042994268255   -1.014954574829    1.854206230925
 K    3.399340624012    2.401170371850   -6.494917262079
