16

 N   -3.149384116367   -0.564783073535    1.904235835395
 C   -1.917258384100   -1.195073353543    1.905190795703
 N   -1.647117447974   -2.515958828511    1.901726606756
 C   -0.318988279511   -2.734152721261    1.917294035419
 H   -0.005179996541   -3.780831453751    1.920673606110
 N    0.693361163530   -1.826171764120    1.931265305694
 C    0.381144419623   -0.515350680871    1.926618901794
 N    1.388771374425    0.409147956434    1.884797064863
 H    2.320222911812    0.078617847682    2.107254998996
 H    1.156033868398    1.369118711473    2.109607310303
 C   -0.984356421251   -0.138656827004    1.917847814079
 N   -1.607885732442    1.100308873626    1.927726023097
 C   -2.907811219599    0.792229485265    1.919271169939
 H   -3.717864748386    1.518810286367    1.923319307802
 H   -4.053173793537   -1.025040197369    1.896632779462
 K    3.434624501554    2.436128767330   -6.641974526688
