16

 N   -3.154473879009   -0.569825884805    1.925449109663
 C   -1.922348146742   -1.200116164813    1.926404069971
 N   -1.652207210616   -2.521001639781    1.922939881024
 C   -0.324078042153   -2.739195532531    1.938507309687
 H   -0.010269759183   -3.785874265021    1.941886880378
 N    0.688271400888   -1.831214575390    1.952478579962
 C    0.376054656981   -0.520393492141    1.947832176062
 N    1.383681611783    0.404105145164    1.906010339131
 H    2.315133149170    0.073575036412    2.128468273264
 H    1.150944105756    1.364075900203    2.130820584571
 C   -0.989446183893   -0.143699638274    1.939061088347
 N   -1.612975495084    1.095266062356    1.948939297365
 C   -2.912900982241    0.787186673995    1.940484444207
 H   -3.722954511028    1.513767475097    1.944532582070
 H   -4.058263556179   -1.030083008639    1.917846053730
 K    3.452266440325    2.453607965070   -6.715503158993
