16

 N   -3.159563641650   -0.574868696075    1.946662383931
 C   -1.927437909383   -1.205158976083    1.947617344239
 N   -1.657296973257   -2.526044451051    1.944153155292
 C   -0.329167804794   -2.744238343801    1.959720583955
 H   -0.015359521824   -3.790917076291    1.963100154646
 N    0.683181638247   -1.836257386660    1.973691854230
 C    0.370964894340   -0.525436303411    1.969045450330
 N    1.378591849142    0.399062333894    1.927223613399
 H    2.310043386529    0.068532225142    2.149681547532
 H    1.145854343115    1.359033088933    2.152033858839
 C   -0.994535946534   -0.148742449544    1.960274362615
 N   -1.618065257725    1.090223251086    1.970152571633
 C   -2.917990744882    0.782143862725    1.961697718475
 H   -3.728044273669    1.508724663827    1.965745856338
 H   -4.063353318820   -1.035125819909    1.939059327998
 K    3.469908379097    2.471087162810   -6.789031791297
