16

 N   -3.174832929574   -0.589997129885    2.010302206735
 C   -1.942707197307   -1.220287409893    2.011257167043
 N   -1.672566261181   -2.541172884861    2.007792978096
 C   -0.344437092718   -2.759366777611    2.023360406759
 H   -0.030628809748   -3.806045510101    2.026739977450
 N    0.667912350323   -1.851385820470    2.037331677034
 C    0.355695606416   -0.540564737221    2.032685273134
 N    1.363322561218    0.383933900084    1.990863436203
 H    2.294774098605    0.053403791332    2.213321370336
 H    1.130585055191    1.343904655123    2.215673681643
 C   -1.009805234458   -0.163870883354    2.023914185419
 N   -1.633334545649    1.075094817276    2.033792394437
 C   -2.933260032806    0.767015428915    2.025337541279
 H   -3.743313561593    1.493596230017    2.029385679142
 H   -4.078622606744   -1.050254253719    2.002699150802
 K    3.522834195410    2.523524756030   -7.009617688211
