16

 N   -3.179922692215   -0.595039941154    2.031515481003
 C   -1.947796959948   -1.225330221162    2.032470441311
 N   -1.677656023822   -2.546215696130    2.029006252364
 C   -0.349526855359   -2.764409588880    2.044573681027
 H   -0.035718572389   -3.811088321370    2.047953251718
 N    0.662822587682   -1.856428631739    2.058544951302
 C    0.350605843775   -0.545607548490    2.053898547402
 N    1.358232798577    0.378891088815    2.012076710471
 H    2.289684335964    0.048360980063    2.234534644604
 H    1.125495292550    1.338861843854    2.236886955911
 C   -1.014894997099   -0.168913694623    2.045127459687
 N   -1.638424308290    1.070052006007    2.055005668705
 C   -2.938349795447    0.761972617646    2.046550815547
 H   -3.748403324234    1.488553418748    2.050598953410
 H   -4.083712369385   -1.055297064988    2.023912425070
 K    3.540476134181    2.541003953770   -7.083146320516
