16

 N   -3.190102217498   -0.605125563694    2.073942029540
 C   -1.957976485231   -1.235415843702    2.074896989848
 N   -1.687835549105   -2.556301318670    2.071432800901
 C   -0.359706380642   -2.774495211420    2.087000229564
 H   -0.045898097672   -3.821173943910    2.090379800255
 N    0.652643062399   -1.866514254279    2.100971499839
 C    0.340426318492   -0.555693171030    2.096325095939
 N    1.348053273294    0.368805466275    2.054503259008
 H    2.279504810681    0.038275357523    2.276961193141
 H    1.115315767267    1.328776221314    2.279313504448
 C   -1.025074522382   -0.178999317163    2.087554008224
 N   -1.648603833573    1.059966383467    2.097432217242
 C   -2.948529320730    0.751886995106    2.088977364084
 H   -3.758582849517    1.478467796208    2.093025501947
 H   -4.093891894668   -1.065382687528    2.066338973607
 K    3.575760011724    2.575962349250   -7.230203585125
