26

 C    2.758308313712    1.325572275882    0.000000000000
 H    2.003868313712    2.119392275882    0.000000000000
 H    3.397938313712    1.433652275882    0.888820000000
 H    3.397938313712    1.433652275882   -0.888820000000
 C    2.088178313712   -0.021347724118    0.000000000000
 O    0.795898313712   -0.128407724118    0.000000000000
 N    2.836168313712   -1.107787724118    0.000000000000
 H    3.845328313712   -0.976467724118    0.000000000000
 C    2.305968313712   -2.478617724118    0.000000000000
 H    1.700358313712   -2.646667724118    0.899280000000
 H    1.700358313712   -2.646667724118   -0.899280000000
 H    3.153638313712   -3.170717724118    0.000000000000
LI   -0.577621686288    0.093202275882    1.271990000000
LI   -0.577621686288    0.093202275882   -1.271990000000
 O   -0.684952351942    0.110509219674    0.000000000000
 C   -1.977225222841    0.003449810290    0.000000000000
 C   -2.647356319906   -1.343474036535    0.000000000000
 H   -1.892911829800   -2.137290848494    0.000000000000
 H   -3.286977977434   -1.451555372900   -0.888816454366
 H   -3.286977977434   -1.451555372900    0.888816454366
 N   -2.725216598051    1.089881329011    0.000000000000
 H   -3.734378393336    0.958562252566    0.000000000000
 C   -2.195022014865    2.460711861229    0.000000000000
 H   -1.589413832052    2.628761229743   -0.899285448705
 H   -1.589413832052    2.628761229743    0.899285448705
 H   -3.042693154199    3.152802824861    0.000000000000
