26

 C    2.848381082942    1.311040148340    0.000000000000
 H    2.093941082942    2.104860148340    0.000000000000
 H    3.488011082942    1.419120148340    0.888820000000
 H    3.488011082942    1.419120148340   -0.888820000000
 C    2.178251082942   -0.035879851660    0.000000000000
 O    0.885971082942   -0.142939851660    0.000000000000
 N    2.926241082942   -1.122319851660    0.000000000000
 H    3.935401082942   -0.990999851660    0.000000000000
 C    2.396041082942   -2.493149851660    0.000000000000
 H    1.790431082942   -2.661199851660    0.899280000000
 H    1.790431082942   -2.661199851660   -0.899280000000
 H    3.243711082942   -3.185249851660    0.000000000000
LI   -0.487548917058    0.078670148340    1.271990000000
LI   -0.487548917058    0.078670148340   -1.271990000000
 O   -0.792326338133    0.127832684638    0.000000000000
 C   -2.084599209032    0.020773275254    0.000000000000
 C   -2.754730306097   -1.326150571571    0.000000000000
 H   -2.000285815991   -2.119967383530    0.000000000000
 H   -3.394351963625   -1.434231907936   -0.888816454366
 H   -3.394351963625   -1.434231907936    0.888816454366
 N   -2.832590584242    1.107204793975    0.000000000000
 H   -3.841752379526    0.975885717530    0.000000000000
 C   -2.302396001056    2.478035326193    0.000000000000
 H   -1.696787818243    2.646084694707   -0.899285448705
 H   -1.696787818243    2.646084694707    0.899285448705
 H   -3.150067140389    3.170126289825    0.000000000000
