26

 C    2.893417467557    1.303774084570    0.000000000000
 H    2.138977467557    2.097594084570    0.000000000000
 H    3.533047467557    1.411854084570    0.888820000000
 H    3.533047467557    1.411854084570   -0.888820000000
 C    2.223287467557   -0.043145915430    0.000000000000
 O    0.931007467557   -0.150205915430    0.000000000000
 N    2.971277467557   -1.129585915430    0.000000000000
 H    3.980437467557   -0.998265915430    0.000000000000
 C    2.441077467557   -2.500415915430    0.000000000000
 H    1.835467467557   -2.668465915430    0.899280000000
 H    1.835467467557   -2.668465915430   -0.899280000000
 H    3.288747467557   -3.192515915430    0.000000000000
LI   -0.442512532443    0.071404084570    1.271990000000
LI   -0.442512532443    0.071404084570   -1.271990000000
 O   -0.846013331228    0.136494417120    0.000000000000
 C   -2.138286202127    0.029435007736    0.000000000000
 C   -2.808417299192   -1.317488839089    0.000000000000
 H   -2.053972809086   -2.111305651048    0.000000000000
 H   -3.448038956720   -1.425570175454   -0.888816454366
 H   -3.448038956720   -1.425570175454    0.888816454366
 N   -2.886277577337    1.115866526457    0.000000000000
 H   -3.895439372622    0.984547450012    0.000000000000
 C   -2.356082994151    2.486697058675    0.000000000000
 H   -1.750474811338    2.654746427189   -0.899285448705
 H   -1.750474811338    2.654746427189    0.899285448705
 H   -3.203754133484    3.178788022307    0.000000000000
