26

 C    2.938453852172    1.296508020799    0.000000000000
 H    2.184013852172    2.090328020799    0.000000000000
 H    3.578083852172    1.404588020799    0.888820000000
 H    3.578083852172    1.404588020799   -0.888820000000
 C    2.268323852172   -0.050411979201    0.000000000000
 O    0.976043852172   -0.157471979201    0.000000000000
 N    3.016313852172   -1.136851979201    0.000000000000
 H    4.025473852172   -1.005531979201    0.000000000000
 C    2.486113852172   -2.507681979201    0.000000000000
 H    1.880503852172   -2.675731979201    0.899280000000
 H    1.880503852172   -2.675731979201   -0.899280000000
 H    3.333783852172   -3.199781979201    0.000000000000
LI   -0.397476147828    0.064138020799    1.271990000000
LI   -0.397476147828    0.064138020799   -1.271990000000
 O   -0.899700324323    0.145156149602    0.000000000000
 C   -2.191973195223    0.038096740218    0.000000000000
 C   -2.862104292287   -1.308827106607    0.000000000000
 H   -2.107659802182   -2.102643918566    0.000000000000
 H   -3.501725949815   -1.416908442972   -0.888816454366
 H   -3.501725949815   -1.416908442972    0.888816454366
 N   -2.939964570433    1.124528258939    0.000000000000
 H   -3.949126365717    0.993209182494    0.000000000000
 C   -2.409769987246    2.495358791157    0.000000000000
 H   -1.804161804433    2.663408159671   -0.899285448705
 H   -1.804161804433    2.663408159671    0.899285448705
 H   -3.257441126580    3.187449754789    0.000000000000
