26

 C    3.028526621402    1.281975893257    0.000000000000
 H    2.274086621402    2.075795893257    0.000000000000
 H    3.668156621402    1.390055893257    0.888820000000
 H    3.668156621402    1.390055893257   -0.888820000000
 C    2.358396621402   -0.064944106743    0.000000000000
 O    1.066116621402   -0.172004106743    0.000000000000
 N    3.106386621402   -1.151384106743    0.000000000000
 H    4.115546621402   -1.020064106743    0.000000000000
 C    2.576186621402   -2.522214106743    0.000000000000
 H    1.970576621402   -2.690264106743    0.899280000000
 H    1.970576621402   -2.690264106743   -0.899280000000
 H    3.423856621402   -3.214314106743    0.000000000000
LI   -0.307403378598    0.049605893257    1.271990000000
LI   -0.307403378598    0.049605893257   -1.271990000000
 O   -1.007074310514    0.162479614566    0.000000000000
 C   -2.299347181413    0.055420205182    0.000000000000
 C   -2.969478278478   -1.291503641643    0.000000000000
 H   -2.215033788372   -2.085320453602    0.000000000000
 H   -3.609099936006   -1.399584978008   -0.888816454366
 H   -3.609099936006   -1.399584978008    0.888816454366
 N   -3.047338556623    1.141851723903    0.000000000000
 H   -4.056500351907    1.010532647458    0.000000000000
 C   -2.517143973437    2.512682256121    0.000000000000
 H   -1.911535790624    2.680731624635   -0.899285448705
 H   -1.911535790624    2.680731624635    0.899285448705
 H   -3.364815112770    3.204773219753    0.000000000000
