26

 C    3.163635775248    1.260177701945    0.000000000000
 H    2.409195775248    2.053997701945    0.000000000000
 H    3.803265775248    1.368257701945    0.888820000000
 H    3.803265775248    1.368257701945   -0.888820000000
 C    2.493505775248   -0.086742298055    0.000000000000
 O    1.201225775248   -0.193802298055    0.000000000000
 N    3.241495775248   -1.173182298055    0.000000000000
 H    4.250655775248   -1.041862298055    0.000000000000
 C    2.711295775248   -2.544012298055    0.000000000000
 H    2.105685775248   -2.712062298055    0.899280000000
 H    2.105685775248   -2.712062298055   -0.899280000000
 H    3.558965775248   -3.236112298055    0.000000000000
LI   -0.172294224752    0.027807701945    1.271990000000
LI   -0.172294224752    0.027807701945   -1.271990000000
 O   -1.168135289800    0.188464812012    0.000000000000
 C   -2.460408160699    0.081405402628    0.000000000000
 C   -3.130539257764   -1.265518444197    0.000000000000
 H   -2.376094767658   -2.059335256156    0.000000000000
 H   -3.770160915291   -1.373599780562   -0.888816454366
 H   -3.770160915291   -1.373599780562    0.888816454366
 N   -3.208399535909    1.167836921349    0.000000000000
 H   -4.217561331193    1.036517844904    0.000000000000
 C   -2.678204952723    2.538667453567    0.000000000000
 H   -2.072596769909    2.706716822081   -0.899285448705
 H   -2.072596769909    2.706716822081    0.899285448705
 H   -3.525876092056    3.230758417199    0.000000000000
