26

 C    3.253708544478    1.245645574403    0.000000000000
 H    2.499268544478    2.039465574403    0.000000000000
 H    3.893338544478    1.353725574403    0.888820000000
 H    3.893338544478    1.353725574403   -0.888820000000
 C    2.583578544478   -0.101274425597    0.000000000000
 O    1.291298544478   -0.208334425597    0.000000000000
 N    3.331568544478   -1.187714425597    0.000000000000
 H    4.340728544478   -1.056394425597    0.000000000000
 C    2.801368544478   -2.558544425597    0.000000000000
 H    2.195758544478   -2.726594425597    0.899280000000
 H    2.195758544478   -2.726594425597   -0.899280000000
 H    3.649038544478   -3.250644425597    0.000000000000
LI   -0.082221455522    0.013275574403    1.271990000000
LI   -0.082221455522    0.013275574403   -1.271990000000
 O   -1.275509275990    0.205788276976    0.000000000000
 C   -2.567782146889    0.098728867592    0.000000000000
 C   -3.237913243954   -1.248194979233    0.000000000000
 H   -2.483468753848   -2.042011791192    0.000000000000
 H   -3.877534901482   -1.356276315598   -0.888816454366
 H   -3.877534901482   -1.356276315598    0.888816454366
 N   -3.315773522099    1.185160386313    0.000000000000
 H   -4.324935317384    1.053841309868    0.000000000000
 C   -2.785578938913    2.555990918531    0.000000000000
 H   -2.179970756100    2.724040287045   -0.899285448705
 H   -2.179970756100    2.724040287045    0.899285448705
 H   -3.633250078247    3.248081882163    0.000000000000
