26

 C    3.343781313708    1.231113446862    0.000000000000
 H    2.589341313708    2.024933446862    0.000000000000
 H    3.983411313708    1.339193446862    0.888820000000
 H    3.983411313708    1.339193446862   -0.888820000000
 C    2.673651313708   -0.115806553138    0.000000000000
 O    1.381371313708   -0.222866553138    0.000000000000
 N    3.421641313708   -1.202246553138    0.000000000000
 H    4.430801313708   -1.070926553138    0.000000000000
 C    2.891441313708   -2.573076553138    0.000000000000
 H    2.285831313708   -2.741126553138    0.899280000000
 H    2.285831313708   -2.741126553138   -0.899280000000
 H    3.739111313708   -3.265176553138    0.000000000000
LI    0.007851313708   -0.001256553138    1.271990000000
LI    0.007851313708   -0.001256553138   -1.271990000000
 O   -1.382883262181    0.223111741940    0.000000000000
 C   -2.675156133080    0.116052332556    0.000000000000
 C   -3.345287230145   -1.230871514269    0.000000000000
 H   -2.590842740039   -2.024688326228    0.000000000000
 H   -3.984908887672   -1.338952850634   -0.888816454366
 H   -3.984908887672   -1.338952850634    0.888816454366
 N   -3.423147508290    1.202483851277    0.000000000000
 H   -4.432309303574    1.071164774832    0.000000000000
 C   -2.892952925104    2.573314383495    0.000000000000
 H   -2.287344742291    2.741363752009   -0.899285448705
 H   -2.287344742291    2.741363752009    0.899285448705
 H   -3.740624064437    3.265405347127    0.000000000000
