26

 C    3.388817698323    1.223847383091    0.000000000000
 H    2.634377698323    2.017667383091    0.000000000000
 H    4.028447698323    1.331927383091    0.888820000000
 H    4.028447698323    1.331927383091   -0.888820000000
 C    2.718687698323   -0.123072616909    0.000000000000
 O    1.426407698323   -0.230132616909    0.000000000000
 N    3.466677698323   -1.209512616909    0.000000000000
 H    4.475837698323   -1.078192616909    0.000000000000
 C    2.936477698323   -2.580342616909    0.000000000000
 H    2.330867698323   -2.748392616909    0.899280000000
 H    2.330867698323   -2.748392616909   -0.899280000000
 H    3.784147698323   -3.272442616909    0.000000000000
LI    0.052887698323   -0.008522616909    1.271990000000
LI    0.052887698323   -0.008522616909   -1.271990000000
 O   -1.436570255276    0.231773474422    0.000000000000
 C   -2.728843126175    0.124714065038    0.000000000000
 C   -3.398974223240   -1.222209781787    0.000000000000
 H   -2.644529733134   -2.016026593746    0.000000000000
 H   -4.038595880768   -1.330291118152   -0.888816454366
 H   -4.038595880768   -1.330291118152    0.888816454366
 N   -3.476834501385    1.211145583759    0.000000000000
 H   -4.485996296670    1.079826507314    0.000000000000
 C   -2.946639918199    2.581976115977    0.000000000000
 H   -2.341031735386    2.750025484491   -0.899285448705
 H   -2.341031735386    2.750025484491    0.899285448705
 H   -3.794311057532    3.274067079609    0.000000000000
