26

 C    3.523926852168    1.202049191778    0.000000000000
 H    2.769486852168    1.995869191778    0.000000000000
 H    4.163556852168    1.310129191778    0.888820000000
 H    4.163556852168    1.310129191778   -0.888820000000
 C    2.853796852168   -0.144870808222    0.000000000000
 O    1.561516852168   -0.251930808222    0.000000000000
 N    3.601786852168   -1.231310808222    0.000000000000
 H    4.610946852168   -1.099990808222    0.000000000000
 C    3.071586852168   -2.602140808222    0.000000000000
 H    2.465976852168   -2.770190808222    0.899280000000
 H    2.465976852168   -2.770190808222   -0.899280000000
 H    3.919256852168   -3.294240808222    0.000000000000
LI    0.187996852168   -0.030320808222    1.271990000000
LI    0.187996852168   -0.030320808222   -1.271990000000
 O   -1.597631234562    0.257758671868    0.000000000000
 C   -2.889904105461    0.150699262484    0.000000000000
 C   -3.560035202526   -1.196224584341    0.000000000000
 H   -2.805590712420   -1.990041396300    0.000000000000
 H   -4.199656860054   -1.304305920706   -0.888816454366
 H   -4.199656860054   -1.304305920706    0.888816454366
 N   -3.637895480671    1.237130781205    0.000000000000
 H   -4.647057275955    1.105811704760    0.000000000000
 C   -3.107700897485    2.607961313423    0.000000000000
 H   -2.502092714672    2.776010681937   -0.899285448705
 H   -2.502092714672    2.776010681937    0.899285448705
 H   -3.955372036818    3.300052277055    0.000000000000
