26

 C    3.613999621398    1.187517064237    0.000000000000
 H    2.859559621398    1.981337064237    0.000000000000
 H    4.253629621398    1.295597064237    0.888820000000
 H    4.253629621398    1.295597064237   -0.888820000000
 C    2.943869621398   -0.159402935763    0.000000000000
 O    1.651589621398   -0.266462935763    0.000000000000
 N    3.691859621398   -1.245842935763    0.000000000000
 H    4.701019621398   -1.114522935763    0.000000000000
 C    3.161659621398   -2.616672935763    0.000000000000
 H    2.556049621398   -2.784722935763    0.899280000000
 H    2.556049621398   -2.784722935763   -0.899280000000
 H    4.009329621398   -3.308772935763    0.000000000000
LI    0.278069621398   -0.044852935763    1.271990000000
LI    0.278069621398   -0.044852935763   -1.271990000000
 O   -1.705005220752    0.275082136832    0.000000000000
 C   -2.997278091652    0.168022727448    0.000000000000
 C   -3.667409188716   -1.178901119377    0.000000000000
 H   -2.912964698611   -1.972717931336    0.000000000000
 H   -4.307030846244   -1.286982455742   -0.888816454366
 H   -4.307030846244   -1.286982455742    0.888816454366
 N   -3.745269466862    1.254454246169    0.000000000000
 H   -4.754431262146    1.123135169724    0.000000000000
 C   -3.215074883675    2.625284778387    0.000000000000
 H   -2.609466700862    2.793334146901   -0.899285448705
 H   -2.609466700862    2.793334146901    0.899285448705
 H   -4.062746023009    3.317375742019    0.000000000000
