26

 C    3.704072390628    1.172984936695    0.000000000000
 H    2.949632390628    1.966804936695    0.000000000000
 H    4.343702390628    1.281064936695    0.888820000000
 H    4.343702390628    1.281064936695   -0.888820000000
 C    3.033942390628   -0.173935063305    0.000000000000
 O    1.741662390628   -0.280995063305    0.000000000000
 N    3.781932390628   -1.260375063305    0.000000000000
 H    4.791092390628   -1.129055063305    0.000000000000
 C    3.251732390628   -2.631205063305    0.000000000000
 H    2.646122390628   -2.799255063305    0.899280000000
 H    2.646122390628   -2.799255063305   -0.899280000000
 H    4.099402390628   -3.323305063305    0.000000000000
LI    0.368142390628   -0.059385063305    1.271990000000
LI    0.368142390628   -0.059385063305   -1.271990000000
 O   -1.812379206943    0.292405601796    0.000000000000
 C   -3.104652077842    0.185346192412    0.000000000000
 C   -3.774783174907   -1.161577654413    0.000000000000
 H   -3.020338684801   -1.955394466372    0.000000000000
 H   -4.414404832435   -1.269658990778   -0.888816454366
 H   -4.414404832435   -1.269658990778    0.888816454366
 N   -3.852643453052    1.271777711133    0.000000000000
 H   -4.861805248336    1.140458634688    0.000000000000
 C   -3.322448869866    2.642608243351    0.000000000000
 H   -2.716840687053    2.810657611865   -0.899285448705
 H   -2.716840687053    2.810657611865    0.899285448705
 H   -4.170120009199    3.334699206983    0.000000000000
