26

 C    3.884217929088    1.143920681612    0.000000000000
 H    3.129777929088    1.937740681612    0.000000000000
 H    4.523847929088    1.252000681612    0.888820000000
 H    4.523847929088    1.252000681612   -0.888820000000
 C    3.214087929088   -0.202999318388    0.000000000000
 O    1.921807929088   -0.310059318388    0.000000000000
 N    3.962077929088   -1.289439318388    0.000000000000
 H    4.971237929088   -1.158119318388    0.000000000000
 C    3.431877929088   -2.660269318388    0.000000000000
 H    2.826267929088   -2.828319318388    0.899280000000
 H    2.826267929088   -2.828319318388   -0.899280000000
 H    4.279547929088   -3.352369318388    0.000000000000
LI    0.548287929088   -0.088449318388    1.271990000000
LI    0.548287929088   -0.088449318388   -1.271990000000
 O   -2.027127179324    0.327052531724    0.000000000000
 C   -3.319400050223    0.219993122340    0.000000000000
 C   -3.989531147288   -1.126930724485    0.000000000000
 H   -3.235086657182   -1.920747536444    0.000000000000
 H   -4.629152804816   -1.235012060850   -0.888816454366
 H   -4.629152804816   -1.235012060850    0.888816454366
 N   -4.067391425433    1.306424641061    0.000000000000
 H   -5.076553220717    1.175105564616    0.000000000000
 C   -3.537196842247    2.677255173279    0.000000000000
 H   -2.931588659434    2.845304541793   -0.899285448705
 H   -2.931588659434    2.845304541793    0.899285448705
 H   -4.384867981580    3.369346136911    0.000000000000
