26

 C    3.974290698318    1.129388554071    0.000000000000
 H    3.219850698318    1.923208554071    0.000000000000
 H    4.613920698318    1.237468554071    0.888820000000
 H    4.613920698318    1.237468554071   -0.888820000000
 C    3.304160698318   -0.217531445929    0.000000000000
 O    2.011880698318   -0.324591445929    0.000000000000
 N    4.052150698318   -1.303971445929    0.000000000000
 H    5.061310698318   -1.172651445929    0.000000000000
 C    3.521950698318   -2.674801445929    0.000000000000
 H    2.916340698318   -2.842851445929    0.899280000000
 H    2.916340698318   -2.842851445929   -0.899280000000
 H    4.369620698318   -3.366901445929    0.000000000000
LI    0.638360698318   -0.102981445929    1.271990000000
LI    0.638360698318   -0.102981445929   -1.271990000000
 O   -2.134501165514    0.344375996688    0.000000000000
 C   -3.426774036414    0.237316587304    0.000000000000
 C   -4.096905133479   -1.109607259521    0.000000000000
 H   -3.342460643373   -1.903424071480    0.000000000000
 H   -4.736526791006   -1.217688595886   -0.888816454366
 H   -4.736526791006   -1.217688595886    0.888816454366
 N   -4.174765411624    1.323748106025    0.000000000000
 H   -5.183927206908    1.192429029580    0.000000000000
 C   -3.644570828437    2.694578638243    0.000000000000
 H   -3.038962645624    2.862628006757   -0.899285448705
 H   -3.038962645624    2.862628006757    0.899285448705
 H   -4.492241967771    3.386669601875    0.000000000000
