26

 C    4.019327082933    1.122122490300    0.000000000000
 H    3.264887082933    1.915942490300    0.000000000000
 H    4.658957082933    1.230202490300    0.888820000000
 H    4.658957082933    1.230202490300   -0.888820000000
 C    3.349197082933   -0.224797509700    0.000000000000
 O    2.056917082933   -0.331857509700    0.000000000000
 N    4.097187082933   -1.311237509700    0.000000000000
 H    5.106347082933   -1.179917509700    0.000000000000
 C    3.566987082933   -2.682067509700    0.000000000000
 H    2.961377082933   -2.850117509700    0.899280000000
 H    2.961377082933   -2.850117509700   -0.899280000000
 H    4.414657082933   -3.374167509700    0.000000000000
LI    0.683397082933   -0.110247509700    1.271990000000
LI    0.683397082933   -0.110247509700   -1.271990000000
 O   -2.188188158610    0.353037729170    0.000000000000
 C   -3.480461029509    0.245978319786    0.000000000000
 C   -4.150592126574   -1.100945527039    0.000000000000
 H   -3.396147636468   -1.894762338998    0.000000000000
 H   -4.790213784101   -1.209026863404   -0.888816454366
 H   -4.790213784101   -1.209026863404    0.888816454366
 N   -4.228452404719    1.332409838507    0.000000000000
 H   -5.237614200003    1.201090762062    0.000000000000
 C   -3.698257821533    2.703240370725    0.000000000000
 H   -3.092649638719    2.871289739239   -0.899285448705
 H   -3.092649638719    2.871289739239    0.899285448705
 H   -4.545928960866    3.395331334357    0.000000000000
