26

 C    4.064363467548    1.114856426529    0.000000000000
 H    3.309923467548    1.908676426529    0.000000000000
 H    4.703993467548    1.222936426529    0.888820000000
 H    4.703993467548    1.222936426529   -0.888820000000
 C    3.394233467548   -0.232063573471    0.000000000000
 O    2.101953467548   -0.339123573471    0.000000000000
 N    4.142223467548   -1.318503573471    0.000000000000
 H    5.151383467548   -1.187183573471    0.000000000000
 C    3.612023467548   -2.689333573471    0.000000000000
 H    3.006413467548   -2.857383573471    0.899280000000
 H    3.006413467548   -2.857383573471   -0.899280000000
 H    4.459693467548   -3.381433573471    0.000000000000
LI    0.728433467548   -0.117513573471    1.271990000000
LI    0.728433467548   -0.117513573471   -1.271990000000
 O   -2.241875151705    0.361699461652    0.000000000000
 C   -3.534148022604    0.254640052268    0.000000000000
 C   -4.204279119669   -1.092283794557    0.000000000000
 H   -3.449834629563   -1.886100606516    0.000000000000
 H   -4.843900777197   -1.200365130922   -0.888816454366
 H   -4.843900777197   -1.200365130922    0.888816454366
 N   -4.282139397814    1.341071570989    0.000000000000
 H   -5.291301193099    1.209752494544    0.000000000000
 C   -3.751944814628    2.711902103207    0.000000000000
 H   -3.146336631815    2.879951471721   -0.899285448705
 H   -3.146336631815    2.879951471721    0.899285448705
 H   -4.599615953961    3.403993066839    0.000000000000
