26

 C    4.109399852163    1.107590362758    0.000000000000
 H    3.354959852163    1.901410362758    0.000000000000
 H    4.749029852163    1.215670362758    0.888820000000
 H    4.749029852163    1.215670362758   -0.888820000000
 C    3.439269852163   -0.239329637242    0.000000000000
 O    2.146989852163   -0.346389637242    0.000000000000
 N    4.187259852163   -1.325769637242    0.000000000000
 H    5.196419852163   -1.194449637242    0.000000000000
 C    3.657059852163   -2.696599637242    0.000000000000
 H    3.051449852163   -2.864649637242    0.899280000000
 H    3.051449852163   -2.864649637242   -0.899280000000
 H    4.504729852163   -3.388699637242    0.000000000000
LI    0.773469852163   -0.124779637242    1.271990000000
LI    0.773469852163   -0.124779637242   -1.271990000000
 O   -2.295562144800    0.370361194134    0.000000000000
 C   -3.587835015699    0.263301784750    0.000000000000
 C   -4.257966112764   -1.083622062075    0.000000000000
 H   -3.503521622658   -1.877438874034    0.000000000000
 H   -4.897587770292   -1.191703398440   -0.888816454366
 H   -4.897587770292   -1.191703398440    0.888816454366
 N   -4.335826390909    1.349733303471    0.000000000000
 H   -5.344988186194    1.218414227026    0.000000000000
 C   -3.805631807723    2.720563835689    0.000000000000
 H   -3.200023624910    2.888613204203   -0.899285448705
 H   -3.200023624910    2.888613204203    0.899285448705
 H   -4.653302947057    3.412654799321    0.000000000000
