26

 C    4.154436236778    1.100324298987    0.000000000000
 H    3.399996236778    1.894144298987    0.000000000000
 H    4.794066236778    1.208404298987    0.888820000000
 H    4.794066236778    1.208404298987   -0.888820000000
 C    3.484306236778   -0.246595701013    0.000000000000
 O    2.192026236778   -0.353655701013    0.000000000000
 N    4.232296236778   -1.333035701013    0.000000000000
 H    5.241456236778   -1.201715701013    0.000000000000
 C    3.702096236778   -2.703865701013    0.000000000000
 H    3.096486236778   -2.871915701013    0.899280000000
 H    3.096486236778   -2.871915701013   -0.899280000000
 H    4.549766236778   -3.395965701013    0.000000000000
LI    0.818506236778   -0.132045701013    1.271990000000
LI    0.818506236778   -0.132045701013   -1.271990000000
 O   -2.349249137895    0.379022926616    0.000000000000
 C   -3.641522008795    0.271963517232    0.000000000000
 C   -4.311653105860   -1.074960329593    0.000000000000
 H   -3.557208615754   -1.868777141552    0.000000000000
 H   -4.951274763387   -1.183041665958   -0.888816454366
 H   -4.951274763387   -1.183041665958    0.888816454366
 N   -4.389513384005    1.358395035953    0.000000000000
 H   -5.398675179289    1.227075959508    0.000000000000
 C   -3.859318800818    2.729225568171    0.000000000000
 H   -3.253710618005    2.897274936685   -0.899285448705
 H   -3.253710618005    2.897274936685    0.899285448705
 H   -4.706989940152    3.421316531803    0.000000000000
