26

 C    4.289545390623    1.078526107675    0.000000000000
 H    3.535105390623    1.872346107675    0.000000000000
 H    4.929175390623    1.186606107675    0.888820000000
 H    4.929175390623    1.186606107675   -0.888820000000
 C    3.619415390623   -0.268393892325    0.000000000000
 O    2.327135390623   -0.375453892325    0.000000000000
 N    4.367405390623   -1.354833892325    0.000000000000
 H    5.376565390623   -1.223513892325    0.000000000000
 C    3.837205390623   -2.725663892325    0.000000000000
 H    3.231595390623   -2.893713892325    0.899280000000
 H    3.231595390623   -2.893713892325   -0.899280000000
 H    4.684875390623   -3.417763892325    0.000000000000
LI    0.953615390623   -0.153843892325    1.271990000000
LI    0.953615390623   -0.153843892325   -1.271990000000
 O   -2.510310117181    0.405008124062    0.000000000000
 C   -3.802582988081    0.297948714678    0.000000000000
 C   -4.472714085145   -1.048975132147    0.000000000000
 H   -3.718269595040   -1.842791944106    0.000000000000
 H   -5.112335742673   -1.157056468512   -0.888816454366
 H   -5.112335742673   -1.157056468512    0.888816454366
 N   -4.550574363290    1.384380233399    0.000000000000
 H   -5.559736158575    1.253061156954    0.000000000000
 C   -4.020379780104    2.755210765617    0.000000000000
 H   -3.414771597291    2.923260134131   -0.899285448705
 H   -3.414771597291    2.923260134131    0.899285448705
 H   -4.868050919438    3.447301729249    0.000000000000
