26

 C    4.379618159853    1.063993980134    0.000000000000
 H    3.625178159853    1.857813980134    0.000000000000
 H    5.019248159853    1.172073980134    0.888820000000
 H    5.019248159853    1.172073980134   -0.888820000000
 C    3.709488159853   -0.282926019866    0.000000000000
 O    2.417208159853   -0.389986019866    0.000000000000
 N    4.457478159853   -1.369366019866    0.000000000000
 H    5.466638159853   -1.238046019866    0.000000000000
 C    3.927278159853   -2.740196019866    0.000000000000
 H    3.321668159853   -2.908246019866    0.899280000000
 H    3.321668159853   -2.908246019866   -0.899280000000
 H    4.774948159853   -3.432296019866    0.000000000000
LI    1.043688159853   -0.168376019866    1.271990000000
LI    1.043688159853   -0.168376019866   -1.271990000000
 O   -2.617684103372    0.422331589026    0.000000000000
 C   -3.909956974271    0.315272179642    0.000000000000
 C   -4.580088071336   -1.031651667183    0.000000000000
 H   -3.825643581230   -1.825468479142    0.000000000000
 H   -5.219709728864   -1.139733003548   -0.888816454366
 H   -5.219709728864   -1.139733003548    0.888816454366
 N   -4.657948349481    1.401703698363    0.000000000000
 H   -5.667110144765    1.270384621918    0.000000000000
 C   -4.127753766295    2.772534230581    0.000000000000
 H   -3.522145583482    2.940583599095   -0.899285448705
 H   -3.522145583482    2.940583599095    0.899285448705
 H   -4.975424905628    3.464625194213    0.000000000000
