26

 C    4.559763698313    1.034929725050    0.000000000000
 H    3.805323698313    1.828749725050    0.000000000000
 H    5.199393698313    1.143009725050    0.888820000000
 H    5.199393698313    1.143009725050   -0.888820000000
 C    3.889633698313   -0.311990274950    0.000000000000
 O    2.597353698313   -0.419050274950    0.000000000000
 N    4.637623698313   -1.398430274950    0.000000000000
 H    5.646783698313   -1.267110274950    0.000000000000
 C    4.107423698313   -2.769260274950    0.000000000000
 H    3.501813698313   -2.937310274950    0.899280000000
 H    3.501813698313   -2.937310274950   -0.899280000000
 H    4.955093698313   -3.461360274950    0.000000000000
LI    1.223833698313   -0.197440274950    1.271990000000
LI    1.223833698313   -0.197440274950   -1.271990000000
 O   -2.832432075753    0.456978518954    0.000000000000
 C   -4.124704946652    0.349919109570    0.000000000000
 C   -4.794836043717   -0.997004737255    0.000000000000
 H   -4.040391553611   -1.790821549214    0.000000000000
 H   -5.434457701245   -1.105086073620   -0.888816454366
 H   -5.434457701245   -1.105086073620    0.888816454366
 N   -4.872696321862    1.436350628291    0.000000000000
 H   -5.881858117146    1.305031551846    0.000000000000
 C   -4.342501738676    2.807181160509    0.000000000000
 H   -3.736893555863    2.975230529023   -0.899285448705
 H   -3.736893555863    2.975230529023    0.899285448705
 H   -5.190172878009    3.499272124141    0.000000000000
