26

 C    4.604800082928    1.027663661280    0.000000000000
 H    3.850360082928    1.821483661280    0.000000000000
 H    5.244430082928    1.135743661280    0.888820000000
 H    5.244430082928    1.135743661280   -0.888820000000
 C    3.934670082928   -0.319256338720    0.000000000000
 O    2.642390082928   -0.426316338720    0.000000000000
 N    4.682660082928   -1.405696338720    0.000000000000
 H    5.691820082928   -1.274376338720    0.000000000000
 C    4.152460082928   -2.776526338720    0.000000000000
 H    3.546850082928   -2.944576338720    0.899280000000
 H    3.546850082928   -2.944576338720   -0.899280000000
 H    5.000130082928   -3.468626338720    0.000000000000
LI    1.268870082928   -0.204706338720    1.271990000000
LI    1.268870082928   -0.204706338720   -1.271990000000
 O   -2.886119068848    0.465640251436    0.000000000000
 C   -4.178391939747    0.358580842052    0.000000000000
 C   -4.848523036812   -0.988343004773    0.000000000000
 H   -4.094078546706   -1.782159816732    0.000000000000
 H   -5.488144694340   -1.096424341138   -0.888816454366
 H   -5.488144694340   -1.096424341138    0.888816454366
 N   -4.926383314957    1.445012360773    0.000000000000
 H   -5.935545110242    1.313693284328    0.000000000000
 C   -4.396188731771    2.815842892991    0.000000000000
 H   -3.790580548958    2.983892261505   -0.899285448705
 H   -3.790580548958    2.983892261505    0.899285448705
 H   -5.243859871105    3.507933856623    0.000000000000
