26

 C    4.694872852159    1.013131533738    0.000000000000
 H    3.940432852159    1.806951533738    0.000000000000
 H    5.334502852159    1.121211533738    0.888820000000
 H    5.334502852159    1.121211533738   -0.888820000000
 C    4.024742852159   -0.333788466262    0.000000000000
 O    2.732462852159   -0.440848466262    0.000000000000
 N    4.772732852159   -1.420228466262    0.000000000000
 H    5.781892852159   -1.288908466262    0.000000000000
 C    4.242532852159   -2.791058466262    0.000000000000
 H    3.636922852159   -2.959108466262    0.899280000000
 H    3.636922852159   -2.959108466262   -0.899280000000
 H    5.090202852159   -3.483158466262    0.000000000000
LI    1.358942852159   -0.219238466262    1.271990000000
LI    1.358942852159   -0.219238466262   -1.271990000000
 O   -2.993493055039    0.482963716400    0.000000000000
 C   -4.285765925938    0.375904307016    0.000000000000
 C   -4.955897023003   -0.971019539809    0.000000000000
 H   -4.201452532897   -1.764836351768    0.000000000000
 H   -5.595518680530   -1.079100876174   -0.888816454366
 H   -5.595518680530   -1.079100876174    0.888816454366
 N   -5.033757301148    1.462335825737    0.000000000000
 H   -6.042919096432    1.331016749292    0.000000000000
 C   -4.503562717962    2.833166357955    0.000000000000
 H   -3.897954535148    3.001215726469   -0.899285448705
 H   -3.897954535148    3.001215726469    0.899285448705
 H   -5.351233857295    3.525257321587    0.000000000000
