26

 C    4.739909236774    1.005865469967    0.000000000000
 H    3.985469236774    1.799685469967    0.000000000000
 H    5.379539236774    1.113945469967    0.888820000000
 H    5.379539236774    1.113945469967   -0.888820000000
 C    4.069779236774   -0.341054530033    0.000000000000
 O    2.777499236774   -0.448114530033    0.000000000000
 N    4.817769236774   -1.427494530033    0.000000000000
 H    5.826929236774   -1.296174530033    0.000000000000
 C    4.287569236774   -2.798324530033    0.000000000000
 H    3.681959236774   -2.966374530033    0.899280000000
 H    3.681959236774   -2.966374530033   -0.899280000000
 H    5.135239236774   -3.490424530033    0.000000000000
LI    1.403979236774   -0.226504530033    1.271990000000
LI    1.403979236774   -0.226504530033   -1.271990000000
 O   -3.047180048134    0.491625448882    0.000000000000
 C   -4.339452919033    0.384566039498    0.000000000000
 C   -5.009584016098   -0.962357807327    0.000000000000
 H   -4.255139525992   -1.756174619286    0.000000000000
 H   -5.649205673626   -1.070439143692   -0.888816454366
 H   -5.649205673626   -1.070439143692    0.888816454366
 N   -5.087444294243    1.470997558219    0.000000000000
 H   -6.096606089528    1.339678481774    0.000000000000
 C   -4.557249711057    2.841828090437    0.000000000000
 H   -3.951641528244    3.009877458951   -0.899285448705
 H   -3.951641528244    3.009877458951    0.899285448705
 H   -5.404920850390    3.533919054069    0.000000000000
