26

 C    4.784945621389    0.998599406196    0.000000000000
 H    4.030505621389    1.792419406196    0.000000000000
 H    5.424575621389    1.106679406196    0.888820000000
 H    5.424575621389    1.106679406196   -0.888820000000
 C    4.114815621389   -0.348320593804    0.000000000000
 O    2.822535621389   -0.455380593804    0.000000000000
 N    4.862805621389   -1.434760593804    0.000000000000
 H    5.871965621389   -1.303440593804    0.000000000000
 C    4.332605621389   -2.805590593804    0.000000000000
 H    3.726995621389   -2.973640593804    0.899280000000
 H    3.726995621389   -2.973640593804   -0.899280000000
 H    5.180275621389   -3.497690593804    0.000000000000
LI    1.449015621389   -0.233770593804    1.271990000000
LI    1.449015621389   -0.233770593804   -1.271990000000
 O   -3.100867041229    0.500287181364    0.000000000000
 C   -4.393139912128    0.393227771980    0.000000000000
 C   -5.063271009193   -0.953696074845    0.000000000000
 H   -4.308826519087   -1.747512886804    0.000000000000
 H   -5.702892666721   -1.061777411210   -0.888816454366
 H   -5.702892666721   -1.061777411210    0.888816454366
 N   -5.141131287338    1.479659290701    0.000000000000
 H   -6.150293082623    1.348340214256    0.000000000000
 C   -4.610936704152    2.850489822919    0.000000000000
 H   -4.005328521339    3.018539191433   -0.899285448705
 H   -4.005328521339    3.018539191433    0.899285448705
 H   -5.458607843486    3.542580786551    0.000000000000
