26

 C    4.829982006004    0.991333342426    0.000000000000
 H    4.075542006004    1.785153342426    0.000000000000
 H    5.469612006004    1.099413342426    0.888820000000
 H    5.469612006004    1.099413342426   -0.888820000000
 C    4.159852006004   -0.355586657574    0.000000000000
 O    2.867572006004   -0.462646657574    0.000000000000
 N    4.907842006004   -1.442026657574    0.000000000000
 H    5.917002006004   -1.310706657574    0.000000000000
 C    4.377642006004   -2.812856657574    0.000000000000
 H    3.772032006004   -2.980906657574    0.899280000000
 H    3.772032006004   -2.980906657574   -0.899280000000
 H    5.225312006004   -3.504956657574    0.000000000000
LI    1.494052006004   -0.241036657574    1.271990000000
LI    1.494052006004   -0.241036657574   -1.271990000000
 O   -3.154554034324    0.508948913846    0.000000000000
 C   -4.446826905224    0.401889504462    0.000000000000
 C   -5.116958002289   -0.945034342363    0.000000000000
 H   -4.362513512183   -1.738851154322    0.000000000000
 H   -5.756579659816   -1.053115678728   -0.888816454366
 H   -5.756579659816   -1.053115678728    0.888816454366
 N   -5.194818280434    1.488321023183    0.000000000000
 H   -6.203980075718    1.357001946738    0.000000000000
 C   -4.664623697247    2.859151555401    0.000000000000
 H   -4.059015514434    3.027200923915   -0.899285448705
 H   -4.059015514434    3.027200923915    0.899285448705
 H   -5.512294836581    3.551242519033    0.000000000000
