26

 C    5.235309467539    0.925938768489    0.000000000000
 H    4.480869467539    1.719758768489    0.000000000000
 H    5.874939467539    1.034018768489    0.888820000000
 H    5.874939467539    1.034018768489   -0.888820000000
 C    4.565179467539   -0.420981231511    0.000000000000
 O    3.272899467539   -0.528041231511    0.000000000000
 N    5.313169467539   -1.507421231511    0.000000000000
 H    6.322329467539   -1.376101231511    0.000000000000
 C    4.782969467539   -2.878251231511    0.000000000000
 H    4.177359467539   -3.046301231511    0.899280000000
 H    4.177359467539   -3.046301231511   -0.899280000000
 H    5.630639467539   -3.570351231511    0.000000000000
LI    1.899379467539   -0.306431231511    1.271990000000
LI    1.899379467539   -0.306431231511   -1.271990000000
 O   -3.637736972182    0.586904506184    0.000000000000
 C   -4.930009843081    0.479845096800    0.000000000000
 C   -5.600140940146   -0.867078750025    0.000000000000
 H   -4.845696450040   -1.660895561984    0.000000000000
 H   -6.239762597674   -0.975160086389   -0.888816454366
 H   -6.239762597674   -0.975160086389    0.888816454366
 N   -5.678001218291    1.566276615522    0.000000000000
 H   -6.687163013575    1.434957539076    0.000000000000
 C   -5.147806635105    2.937107147739    0.000000000000
 H   -4.542198452292    3.105156516253   -0.899285448705
 H   -4.542198452292    3.105156516253    0.899285448705
 H   -5.995477774438    3.629198111371    0.000000000000
