26

 C    5.280345852154    0.918672704718    0.000000000000
 H    4.525905852154    1.712492704718    0.000000000000
 H    5.919975852154    1.026752704718    0.888820000000
 H    5.919975852154    1.026752704718   -0.888820000000
 C    4.610215852154   -0.428247295282    0.000000000000
 O    3.317935852154   -0.535307295282    0.000000000000
 N    5.358205852154   -1.514687295282    0.000000000000
 H    6.367365852154   -1.383367295282    0.000000000000
 C    4.828005852154   -2.885517295282    0.000000000000
 H    4.222395852154   -3.053567295282    0.899280000000
 H    4.222395852154   -3.053567295282   -0.899280000000
 H    5.675675852154   -3.577617295282    0.000000000000
LI    1.944415852154   -0.313697295282    1.271990000000
LI    1.944415852154   -0.313697295282   -1.271990000000
 O   -3.691423965277    0.595566238666    0.000000000000
 C   -4.983696836176    0.488506829282    0.000000000000
 C   -5.653827933241   -0.858417017543    0.000000000000
 H   -4.899383443135   -1.652233829502    0.000000000000
 H   -6.293449590769   -0.966498353907   -0.888816454366
 H   -6.293449590769   -0.966498353907    0.888816454366
 N   -5.731688211386    1.574938348004    0.000000000000
 H   -6.740850006671    1.443619271558    0.000000000000
 C   -5.201493628200    2.945768880221    0.000000000000
 H   -4.595885445387    3.113818248735   -0.899285448705
 H   -4.595885445387    3.113818248735    0.899285448705
 H   -6.049164767533    3.637859843853    0.000000000000
