26

 C    5.415455005999    0.896874513405    0.000000000000
 H    4.661015005999    1.690694513405    0.000000000000
 H    6.055085005999    1.004954513405    0.888820000000
 H    6.055085005999    1.004954513405   -0.888820000000
 C    4.745325005999   -0.450045486595    0.000000000000
 O    3.453045005999   -0.557105486595    0.000000000000
 N    5.493315005999   -1.536485486595    0.000000000000
 H    6.502475005999   -1.405165486595    0.000000000000
 C    4.963115005999   -2.907315486595    0.000000000000
 H    4.357505005999   -3.075365486595    0.899280000000
 H    4.357505005999   -3.075365486595   -0.899280000000
 H    5.810785005999   -3.599415486595    0.000000000000
LI    2.079525005999   -0.335495486595    1.271990000000
LI    2.079525005999   -0.335495486595   -1.271990000000
 O   -3.852484944563    0.621551436112    0.000000000000
 C   -5.144757815462    0.514492026728    0.000000000000
 C   -5.814888912527   -0.832431820097    0.000000000000
 H   -5.060444422421   -1.626248632056    0.000000000000
 H   -6.454510570055   -0.940513156461   -0.888816454366
 H   -6.454510570055   -0.940513156461    0.888816454366
 N   -5.892749190672    1.600923545450    0.000000000000
 H   -6.901910985957    1.469604469004    0.000000000000
 C   -5.362554607486    2.971754077667    0.000000000000
 H   -4.756946424673    3.139803446181   -0.899285448705
 H   -4.756946424673    3.139803446181    0.899285448705
 H   -6.210225746819    3.663845041299    0.000000000000
