26

 C    5.505527775229    0.882342385864    0.000000000000
 H    4.751087775229    1.676162385864    0.000000000000
 H    6.145157775229    0.990422385864    0.888820000000
 H    6.145157775229    0.990422385864   -0.888820000000
 C    4.835397775229   -0.464577614136    0.000000000000
 O    3.543117775229   -0.571637614136    0.000000000000
 N    5.583387775229   -1.551017614136    0.000000000000
 H    6.592547775229   -1.419697614136    0.000000000000
 C    5.053187775229   -2.921847614136    0.000000000000
 H    4.447577775229   -3.089897614136    0.899280000000
 H    4.447577775229   -3.089897614136   -0.899280000000
 H    5.900857775229   -3.613947614136    0.000000000000
LI    2.169597775229   -0.350027614136    1.271990000000
LI    2.169597775229   -0.350027614136   -1.271990000000
 O   -3.959858930753    0.638874901076    0.000000000000
 C   -5.252131801653    0.531815491692    0.000000000000
 C   -5.922262898718   -0.815108355133    0.000000000000
 H   -5.167818408612   -1.608925167092    0.000000000000
 H   -6.561884556245   -0.923189691497   -0.888816454366
 H   -6.561884556245   -0.923189691497    0.888816454366
 N   -6.000123176863    1.618247010414    0.000000000000
 H   -7.009284972147    1.486927933968    0.000000000000
 C   -5.469928593676    2.989077542631    0.000000000000
 H   -4.864320410863    3.157126911145   -0.899285448705
 H   -4.864320410863    3.157126911145    0.899285448705
 H   -6.317599733010    3.681168506263    0.000000000000
