26

 C    5.775746082919    0.838746003239    0.000000000000
 H    5.021306082919    1.632566003239    0.000000000000
 H    6.415376082919    0.946826003239    0.888820000000
 H    6.415376082919    0.946826003239   -0.888820000000
 C    5.105616082919   -0.508173996761    0.000000000000
 O    3.813336082919   -0.615233996761    0.000000000000
 N    5.853606082919   -1.594613996761    0.000000000000
 H    6.862766082919   -1.463293996761    0.000000000000
 C    5.323406082919   -2.965443996761    0.000000000000
 H    4.717796082919   -3.133493996761    0.899280000000
 H    4.717796082919   -3.133493996761   -0.899280000000
 H    6.171076082919   -3.657543996761    0.000000000000
LI    2.439816082919   -0.393623996761    1.271990000000
LI    2.439816082919   -0.393623996761   -1.271990000000
 O   -4.281980889325    0.690845295968    0.000000000000
 C   -5.574253760224    0.583785886584    0.000000000000
 C   -6.244384857289   -0.763137960241    0.000000000000
 H   -5.489940367183   -1.556954772200    0.000000000000
 H   -6.884006514817   -0.871219296605   -0.888816454366
 H   -6.884006514817   -0.871219296605    0.888816454366
 N   -6.322245135434    1.670217405306    0.000000000000
 H   -7.331406930719    1.538898328860    0.000000000000
 C   -5.792050552248    3.041047937523    0.000000000000
 H   -5.186442369435    3.209097306037   -0.899285448705
 H   -5.186442369435    3.209097306037    0.899285448705
 H   -6.639721691581    3.733138901155    0.000000000000
