26

 C    5.820782467534    0.831479939468    0.000000000000
 H    5.066342467534    1.625299939468    0.000000000000
 H    6.460412467534    0.939559939468    0.888820000000
 H    6.460412467534    0.939559939468   -0.888820000000
 C    5.150652467534   -0.515440060532    0.000000000000
 O    3.858372467534   -0.622500060532    0.000000000000
 N    5.898642467534   -1.601880060532    0.000000000000
 H    6.907802467534   -1.470560060532    0.000000000000
 C    5.368442467534   -2.972710060532    0.000000000000
 H    4.762832467534   -3.140760060532    0.899280000000
 H    4.762832467534   -3.140760060532   -0.899280000000
 H    6.216112467534   -3.664810060532    0.000000000000
LI    2.484852467534   -0.400890060532    1.271990000000
LI    2.484852467534   -0.400890060532   -1.271990000000
 O   -4.335667882420    0.699507028450    0.000000000000
 C   -5.627940753320    0.592447619066    0.000000000000
 C   -6.298071850384   -0.754476227759    0.000000000000
 H   -5.543627360279   -1.548293039718    0.000000000000
 H   -6.937693507912   -0.862557564123   -0.888816454366
 H   -6.937693507912   -0.862557564123    0.888816454366
 N   -6.375932128530    1.678879137788    0.000000000000
 H   -7.385093923814    1.547560061342    0.000000000000
 C   -5.845737545343    3.049709670005    0.000000000000
 H   -5.240129362530    3.217759038519   -0.899285448705
 H   -5.240129362530    3.217759038519    0.899285448705
 H   -6.693408684677    3.741800633637    0.000000000000
