26

 C    6.316182698300    0.751553237990    0.000000000000
 H    5.561742698300    1.545373237990    0.000000000000
 H    6.955812698300    0.859633237990    0.888820000000
 H    6.955812698300    0.859633237990   -0.888820000000
 C    5.646052698300   -0.595366762010    0.000000000000
 O    4.353772698300   -0.702426762010    0.000000000000
 N    6.394042698300   -1.681806762010    0.000000000000
 H    7.403202698300   -1.550486762010    0.000000000000
 C    5.863842698300   -3.052636762010    0.000000000000
 H    5.258232698300   -3.220686762010    0.899280000000
 H    5.258232698300   -3.220686762010   -0.899280000000
 H    6.711512698300   -3.744736762010    0.000000000000
LI    2.980252698300   -0.480816762010    1.271990000000
LI    2.980252698300   -0.480816762010   -1.271990000000
 O   -4.926224806468    0.794786085752    0.000000000000
 C   -6.218497677367    0.687726676368    0.000000000000
 C   -6.888628774432   -0.659197170457    0.000000000000
 H   -6.134184284326   -1.453013982416    0.000000000000
 H   -7.528250431960   -0.767278506821   -0.888816454366
 H   -7.528250431960   -0.767278506821    0.888816454366
 N   -6.966489052577    1.774158195090    0.000000000000
 H   -7.975650847862    1.642839118644    0.000000000000
 C   -6.436294469391    3.144988727307    0.000000000000
 H   -5.830686286578    3.313038095821   -0.899285448705
 H   -5.830686286578    3.313038095821    0.899285448705
 H   -7.283965608725    3.837079690939    0.000000000000
