26

 C    6.406255467530    0.737021110448    0.000000000000
 H    5.651815467530    1.530841110448    0.000000000000
 H    7.045885467530    0.845101110448    0.888820000000
 H    7.045885467530    0.845101110448   -0.888820000000
 C    5.736125467530   -0.609898889552    0.000000000000
 O    4.443845467530   -0.716958889552    0.000000000000
 N    6.484115467530   -1.696338889552    0.000000000000
 H    7.493275467530   -1.565018889552    0.000000000000
 C    5.953915467530   -3.067168889552    0.000000000000
 H    5.348305467530   -3.235218889552    0.899280000000
 H    5.348305467530   -3.235218889552   -0.899280000000
 H    6.801585467530   -3.759268889552    0.000000000000
LI    3.070325467530   -0.495348889552    1.271990000000
LI    3.070325467530   -0.495348889552   -1.271990000000
 O   -5.033598792659    0.812109550716    0.000000000000
 C   -6.325871663558    0.705050141333    0.000000000000
 C   -6.996002760623   -0.641873705493    0.000000000000
 H   -6.241558270517   -1.435690517452    0.000000000000
 H   -7.635624418151   -0.749955041857   -0.888816454366
 H   -7.635624418151   -0.749955041857    0.888816454366
 N   -7.073863038768    1.791481660054    0.000000000000
 H   -8.083024834052    1.660162583608    0.000000000000
 C   -6.543668455582    3.162312192271    0.000000000000
 H   -5.938060272769    3.330361560785   -0.899285448705
 H   -5.938060272769    3.330361560785    0.899285448705
 H   -7.391339594915    3.854403155903    0.000000000000
