26

 C    6.496328236760    0.722488982906    0.000000000000
 H    5.741888236760    1.516308982906    0.000000000000
 H    7.135958236760    0.830568982906    0.888820000000
 H    7.135958236760    0.830568982906   -0.888820000000
 C    5.826198236760   -0.624431017094    0.000000000000
 O    4.533918236760   -0.731491017094    0.000000000000
 N    6.574188236760   -1.710871017094    0.000000000000
 H    7.583348236760   -1.579551017094    0.000000000000
 C    6.043988236760   -3.081701017094    0.000000000000
 H    5.438378236760   -3.249751017094    0.899280000000
 H    5.438378236760   -3.249751017094   -0.899280000000
 H    6.891658236760   -3.773801017094    0.000000000000
LI    3.160398236760   -0.509881017094    1.271990000000
LI    3.160398236760   -0.509881017094   -1.271990000000
 O   -5.140972778849    0.829433015680    0.000000000000
 C   -6.433245649749    0.722373606297    0.000000000000
 C   -7.103376746813   -0.624550240529    0.000000000000
 H   -6.348932256708   -1.418367052488    0.000000000000
 H   -7.742998404341   -0.732631576893   -0.888816454366
 H   -7.742998404341   -0.732631576893    0.888816454366
 N   -7.181237024959    1.808805125018    0.000000000000
 H   -8.190398820243    1.677486048572    0.000000000000
 C   -6.651042441772    3.179635657235    0.000000000000
 H   -6.045434258959    3.347685025749   -0.899285448705
 H   -6.045434258959    3.347685025749    0.899285448705
 H   -7.498713581106    3.871726620867    0.000000000000
