26

 C    6.541364621375    0.715222919136    0.000000000000
 H    5.786924621375    1.509042919136    0.000000000000
 H    7.180994621375    0.823302919136    0.888820000000
 H    7.180994621375    0.823302919136   -0.888820000000
 C    5.871234621375   -0.631697080864    0.000000000000
 O    4.578954621375   -0.738757080864    0.000000000000
 N    6.619224621375   -1.718137080864    0.000000000000
 H    7.628384621375   -1.586817080864    0.000000000000
 C    6.089024621375   -3.088967080864    0.000000000000
 H    5.483414621375   -3.257017080864    0.899280000000
 H    5.483414621375   -3.257017080864   -0.899280000000
 H    6.936694621375   -3.781067080864    0.000000000000
LI    3.205434621375   -0.517147080864    1.271990000000
LI    3.205434621375   -0.517147080864   -1.271990000000
 O   -5.194659771944    0.838094748162    0.000000000000
 C   -6.486932642844    0.731035338779    0.000000000000
 C   -7.157063739909   -0.615888508047    0.000000000000
 H   -6.402619249803   -1.409705320006    0.000000000000
 H   -7.796685397436   -0.723969844411   -0.888816454366
 H   -7.796685397436   -0.723969844411    0.888816454366
 N   -7.234924018054    1.817466857500    0.000000000000
 H   -8.244085813338    1.686147781054    0.000000000000
 C   -6.704729434867    3.188297389717    0.000000000000
 H   -6.099121252054    3.356346758231   -0.899285448705
 H   -6.099121252054    3.356346758231    0.899285448705
 H   -7.552400574201    3.880388353349    0.000000000000
