16

 N   -2.555553325442    0.351201789209   -0.015918184249
 C   -1.323427593175   -0.279088490799   -0.014963223941
 N   -1.053286657049   -1.599973965767   -0.018427412888
 C    0.274842511414   -1.818167858517   -0.002859984225
 H    0.588650794384   -2.864846591007    0.000519586466
 N    1.287191954455   -0.910186901376    0.011111286050
 C    0.974975210548    0.400634181873    0.006464882150
 N    1.982602165350    1.325132819178   -0.035356954781
 H    2.914053702737    0.994602710426    0.187100979352
 H    1.749864659323    2.285103574217    0.189453290659
 C   -0.390525630326    0.777328035740   -0.002306205565
 N   -1.014054941517    2.016293736370    0.007572003453
 C   -2.313980428674    1.708214348009   -0.000882849705
 H   -3.124033957461    2.434795149111    0.003165288158
 H   -3.459343002612   -0.109055334625   -0.023521240182
NA    2.332610763466   -1.252177289254    0.023031368545
