16

 N   -2.569377954834    0.355724273717   -0.016075815546
 C   -1.337252222567   -0.274566006291   -0.015120855238
 N   -1.067111286441   -1.595451481259   -0.018585044185
 C    0.261017882022   -1.813645374009   -0.003017615522
 H    0.574826164992   -2.860324106499    0.000361955169
 N    1.273367325063   -0.905664416868    0.010953654753
 C    0.961150581156    0.405156666381    0.006307250853
 N    1.968777535958    1.329655303686   -0.035514586078
 H    2.900229073345    0.999125194934    0.186943348055
 H    1.736040029931    2.289626058725    0.189295659362
 C   -0.404350259718    0.781850520248   -0.002463836862
 N   -1.027879570909    2.020816220878    0.007414372156
 C   -2.327805058066    1.712736832517   -0.001040481002
 H   -3.137858586853    2.439317633619    0.003007656861
 H   -3.473167632004   -0.104532850117   -0.023678871479
NA    2.413824207620   -1.278744840008    0.023957381111
