16

 N   -2.624676472404    0.373814211749   -0.016706340734
 C   -1.392550740137   -0.256476068259   -0.015751380426
 N   -1.122409804011   -1.577361543227   -0.019215569373
 C    0.205719364452   -1.795555435977   -0.003648140710
 H    0.519527647422   -2.842234168467   -0.000268570019
 N    1.218068807493   -0.887574478836    0.010323129565
 C    0.905852063586    0.423246604413    0.005676725665
 N    1.913479018388    1.347745241718   -0.036145111266
 H    2.844930555775    1.017215132966    0.186312822867
 H    1.680741512361    2.307715996757    0.188665134174
 C   -0.459648777288    0.799940458280   -0.003094362050
 N   -1.083178088479    2.038906158910    0.006783846968
 C   -2.383103575636    1.730826770549   -0.001671006190
 H   -3.193157104423    2.457407571651    0.002377131673
 H   -3.528466149574   -0.086442912085   -0.024309396667
NA    2.738677984235   -1.385015043022    0.027661431375
