16

 N   -2.638501101796    0.378336696257   -0.016863972031
 C   -1.406375369529   -0.251953583751   -0.015909011723
 N   -1.136234433403   -1.572839058719   -0.019373200670
 C    0.191894735060   -1.791032951469   -0.003805772007
 H    0.505703018030   -2.837711683959   -0.000426201316
 N    1.204244178101   -0.883051994328    0.010165498268
 C    0.892027434194    0.427769088921    0.005519094368
 N    1.899654388996    1.352267726226   -0.036302742563
 H    2.831105926383    1.021737617474    0.186155191570
 H    1.666916882969    2.312238481265    0.188507502877
 C   -0.473473406680    0.804462942788   -0.003251993347
 N   -1.097002717871    2.043428643418    0.006626215671
 C   -2.396928205028    1.735349255057   -0.001828637487
 H   -3.206981733815    2.461930056159    0.002219500376
 H   -3.542290778966   -0.081920427577   -0.024467027964
NA    2.819891428389   -1.411582593776    0.028587443941
