16

 N   -2.652325731189    0.382859180765   -0.017021603328
 C   -1.420199998922   -0.247431099243   -0.016066643020
 N   -1.150059062796   -1.568316574211   -0.019530831967
 C    0.178070105667   -1.786510466961   -0.003963403304
 H    0.491878388637   -2.833189199451   -0.000583832613
 N    1.190419548708   -0.878529509820    0.010007866971
 C    0.878202804801    0.432291573429    0.005361463071
 N    1.885829759603    1.356790210734   -0.036460373860
 H    2.817281296990    1.026260101982    0.185997560273
 H    1.653092253576    2.316760965773    0.188349871580
 C   -0.487298036073    0.808985427296   -0.003409624644
 N   -1.110827347264    2.047951127926    0.006468584374
 C   -2.410752834421    1.739871739565   -0.001986268784
 H   -3.220806363208    2.466452540667    0.002061869079
 H   -3.556115408359   -0.077397943069   -0.024624659261
NA    2.901104872543   -1.438150144529    0.029513456507
