16

 N   -2.666150360581    0.387381665273   -0.017179234625
 C   -1.434024628314   -0.242908614735   -0.016224274317
 N   -1.163883692188   -1.563794089703   -0.019688463264
 C    0.164245476275   -1.781987982453   -0.004121034601
 H    0.478053759245   -2.828666714943   -0.000741463910
 N    1.176594919316   -0.874007025312    0.009850235674
 C    0.864378175409    0.436814057937    0.005203831774
 N    1.872005130211    1.361312695242   -0.036618005157
 H    2.803456667598    1.030782586490    0.185839928976
 H    1.639267624184    2.321283450281    0.188192240283
 C   -0.501122665465    0.813507911804   -0.003567255941
 N   -1.124651976656    2.052473612434    0.006310953077
 C   -2.424577463813    1.744394224073   -0.002143900081
 H   -3.234630992600    2.470975025175    0.001904237782
 H   -3.569940037751   -0.072875458561   -0.024782290558
NA    2.982318316697   -1.464717695283    0.030439469073
