16

 N   -2.707624248759    0.400949118798   -0.017652128516
 C   -1.475498516492   -0.229341161210   -0.016697168208
 N   -1.205357580366   -1.550226636178   -0.020161357155
 C    0.122771588097   -1.768420528928   -0.004593928492
 H    0.436579871067   -2.815099261418   -0.001214357801
 N    1.135121031138   -0.860439571787    0.009377341783
 C    0.822904287231    0.450381511462    0.004730937883
 N    1.830531242033    1.374880148767   -0.037090899048
 H    2.761982779420    1.044350040015    0.185367035085
 H    1.597793736006    2.334850903806    0.187719346392
 C   -0.542596553643    0.827075365329   -0.004040149832
 N   -1.166125864834    2.066041065959    0.005838059186
 C   -2.466051351991    1.757961677598   -0.002616793972
 H   -3.276104880778    2.484542478700    0.001431343891
 H   -3.611413925929   -0.059308005036   -0.025255184449
NA    3.225958649159   -1.544420347543    0.033217506772
