16

 N   -2.762922766328    0.419039056830   -0.018282653704
 C   -1.530797034061   -0.211251223178   -0.017327693396
 N   -1.260656097935   -1.532136698146   -0.020791882343
 C    0.067473070528   -1.750330590896   -0.005224453680
 H    0.381281353498   -2.797009323386   -0.001844882989
 N    1.079822513569   -0.842349633755    0.008746816595
 C    0.767605769662    0.468471449494    0.004100412695
 N    1.775232724464    1.392970086799   -0.037721424236
 H    2.706684261851    1.062439978047    0.184736509897
 H    1.542495218437    2.352940841838    0.187088821204
 C   -0.597895071212    0.845165303361   -0.004670675020
 N   -1.221424382403    2.084131003991    0.005207533998
 C   -2.521349869560    1.776051615630   -0.003247319160
 H   -3.331403398347    2.502632416732    0.000800818703
 H   -3.666712443498   -0.041218067004   -0.025885709637
NA    3.550812425774   -1.650690550558    0.036921557036
