16

 N   -2.804396654506    0.432606510354   -0.018755547595
 C   -1.572270922239   -0.197683769654   -0.017800587287
 N   -1.302129986113   -1.518569244622   -0.021264776234
 C    0.025999182350   -1.736763137372   -0.005697347571
 H    0.339807465320   -2.783441869862   -0.002317776880
 N    1.038348625391   -0.828782180231    0.008273922704
 C    0.726131881484    0.482038903018    0.003627518804
 N    1.733758836286    1.406537540323   -0.038194318127
 H    2.665210373673    1.076007431571    0.184263616006
 H    1.501021330259    2.366508295362    0.186615927313
 C   -0.639368959390    0.858732756885   -0.005143568911
 N   -1.262898270581    2.097698457515    0.004734640107
 C   -2.562823757738    1.789619069154   -0.003720213051
 H   -3.372877286525    2.516199870256    0.000327924812
 H   -3.708186331676   -0.027650613480   -0.026358603528
NA    3.794452758236   -1.730393202818    0.039699594734
