16

 N   -2.832045913291    0.441651479370   -0.019070810189
 C   -1.599920181024   -0.188638800638   -0.018115849881
 N   -1.329779244898   -1.509524275606   -0.021580038828
 C   -0.001650076435   -1.727718168356   -0.006012610165
 H    0.312158206535   -2.774396900846   -0.002633039474
 N    1.010699366606   -0.819737211215    0.007958660110
 C    0.698482622699    0.491083872034    0.003312256210
 N    1.706109577501    1.415582509339   -0.038509580721
 H    2.637561114888    1.085052400587    0.183948353412
 H    1.473372071474    2.375553264378    0.186300664719
 C   -0.667018218175    0.867777725901   -0.005458831505
 N   -1.290547529366    2.106743426531    0.004419377513
 C   -2.590473016523    1.798664038170   -0.004035475645
 H   -3.400526545310    2.525244839272    0.000012662218
 H   -3.735835590461   -0.018605644464   -0.026673866122
NA    3.956879646544   -1.783528304326    0.041551619866
