16

 N   -2.970292207215    0.486876324451   -0.020647123160
 C   -1.738166474948   -0.143413955557   -0.019692162852
 N   -1.468025538822   -1.464299430525   -0.023156351799
 C   -0.139896370359   -1.682493323275   -0.007588923136
 H    0.173911912611   -2.729172055765   -0.004209352445
 N    0.872453072682   -0.774512366134    0.006382347139
 C    0.560236328775    0.536308717115    0.001735943239
 N    1.567863283577    1.460807354420   -0.040085893692
 H    2.499314820964    1.130277245668    0.182372040441
 H    1.335125777550    2.420778109459    0.184724351748
 C   -0.805264512099    0.913002570982   -0.007035144476
 N   -1.428793823290    2.151968271612    0.002843064542
 C   -2.728719310447    1.843888883251   -0.005611788616
 H   -3.538772839234    2.570469684353   -0.001563650753
 H   -3.874081884385    0.026619200617   -0.028250179093
NA    4.769014088083   -2.049203811861    0.050811745527
