16

 N   -3.011766095393    0.500443777975   -0.021120017051
 C   -1.779640363126   -0.129846502033   -0.020165056743
 N   -1.509499427000   -1.450731977001   -0.023629245690
 C   -0.181370258537   -1.668925869751   -0.008061817027
 H    0.132438024433   -2.715604602241   -0.004682246336
 N    0.830979184504   -0.760944912610    0.005909453248
 C    0.518762440597    0.549876170639    0.001263049348
 N    1.526389395399    1.474374807944   -0.040558787583
 H    2.457840932786    1.143844699192    0.181899146550
 H    1.293651889372    2.434345562983    0.184251457857
 C   -0.846738400277    0.926570024506   -0.007508038367
 N   -1.470267711468    2.165535725136    0.002370170651
 C   -2.770193198625    1.857456336775   -0.006084682507
 H   -3.580246727412    2.584037137877   -0.002036544644
 H   -3.915555772563    0.040186654141   -0.028723072984
NA    5.012654420545   -2.128906464122    0.053589783225
