16

 N   -3.025590724785    0.504966262483   -0.021277648348
 C   -1.793464992518   -0.125324017525   -0.020322688040
 N   -1.523324056392   -1.446209492493   -0.023786876987
 C   -0.195194887929   -1.664403385243   -0.008219448324
 H    0.118613395041   -2.711082117733   -0.004839877633
 N    0.817154555112   -0.756422428102    0.005751821951
 C    0.504937811205    0.554398655147    0.001105418051
 N    1.512564766007    1.478897292452   -0.040716418880
 H    2.444016303394    1.148367183700    0.181741515253
 H    1.279827259980    2.438868047491    0.184093826560
 C   -0.860563029669    0.931092509014   -0.007665669664
 N   -1.484092340860    2.170058209644    0.002212539354
 C   -2.784017828017    1.861978821283   -0.006242313804
 H   -3.594071356804    2.588559622385   -0.002194175941
 H   -3.929380401955    0.044709138649   -0.028880704281
NA    5.093867864699   -2.155474014876    0.054515795791
