16

 N   -3.122363130532    0.536623654040   -0.022381067427
 C   -1.890237398265   -0.093666625968   -0.021426107119
 N   -1.620096462139   -1.414552100936   -0.024890296066
 C   -0.291967293676   -1.632745993686   -0.009322867403
 H    0.021840989294   -2.679424726176   -0.005943296712
 N    0.720382149365   -0.724765036545    0.004648402872
 C    0.408165405458    0.586056046704    0.000001998972
 N    1.415792360260    1.510554684009   -0.041819837959
 H    2.347243897647    1.180024575257    0.180638096174
 H    1.183054854233    2.470525439048    0.182990407481
 C   -0.957335435416    0.962749900571   -0.008769088743
 N   -1.580864746607    2.201715601201    0.001109120275
 C   -2.880790233764    1.893636212840   -0.007345732883
 H   -3.690843762551    2.620217013942   -0.003297595020
 H   -4.026152807702    0.076366530206   -0.029984123360
NA    5.662361973776   -2.341446870151    0.060997883754
