16

 N   -3.136187759925    0.541146138548   -0.022538698724
 C   -1.904062027658   -0.089144141460   -0.021583738416
 N   -1.633921091532   -1.410029616428   -0.025047927363
 C   -0.305791923069   -1.628223509178   -0.009480498700
 H    0.008016359901   -2.674902241668   -0.006100928009
 N    0.706557519972   -0.720242552037    0.004490771575
 C    0.394340776065    0.590578531212   -0.000155632325
 N    1.401967730867    1.515077168517   -0.041977469256
 H    2.333419268254    1.184547059765    0.180480464877
 H    1.169230224840    2.475047923556    0.182832776184
 C   -0.971160064809    0.967272385079   -0.008926720040
 N   -1.594689376000    2.206238085709    0.000951488978
 C   -2.894614863157    1.898158697348   -0.007503364180
 H   -3.704668391944    2.624739498450   -0.003455226317
 H   -4.039977437095    0.080889014714   -0.030141754657
NA    5.743575417930   -2.368014420904    0.061923896320
