16

 N   -3.150012389317    0.545668623056   -0.022696330021
 C   -1.917886657050   -0.084621656952   -0.021741369713
 N   -1.647745720924   -1.405507131920   -0.025205558660
 C   -0.319616552461   -1.623701024670   -0.009638129997
 H   -0.005808269491   -2.670379757160   -0.006258559306
 N    0.692732890580   -0.715720067529    0.004333140278
 C    0.380516146673    0.595101015720   -0.000313263622
 N    1.388143101475    1.519599653025   -0.042135100553
 H    2.319594638862    1.189069544273    0.180322833580
 H    1.155405595448    2.479570408064    0.182675144887
 C   -0.984984694201    0.971794869587   -0.009084351337
 N   -1.608514005392    2.210760570217    0.000793857681
 C   -2.908439492549    1.902681181856   -0.007660995477
 H   -3.718493021336    2.629261982958   -0.003612857614
 H   -4.053802066487    0.085411499222   -0.030299385954
NA    5.824788862084   -2.394581971658    0.062849908886
