16

 N   -3.205310906887    0.563758561088   -0.023326855209
 C   -1.973185174620   -0.066531718920   -0.022371894901
 N   -1.703044238494   -1.387417193888   -0.025836083848
 C   -0.374915070031   -1.605611086638   -0.010268655185
 H   -0.061106787061   -2.652289819128   -0.006889084494
 N    0.637434373010   -0.697630129497    0.003702615090
 C    0.325217629103    0.613190953752   -0.000943788810
 N    1.332844583905    1.537689591057   -0.042765625741
 H    2.264296121292    1.207159482305    0.179692308392
 H    1.100107077878    2.497660346096    0.182044619699
 C   -1.040283211771    0.989884807619   -0.009714876525
 N   -1.663812522962    2.228850508249    0.000163332493
 C   -2.963738010119    1.920771119888   -0.008291520665
 H   -3.773791538906    2.647351920990   -0.004243382802
 H   -4.109100584057    0.103501437254   -0.030929911142
NA    6.149642638700   -2.500852174672    0.066553959150
