16

 N   -3.260609424457    0.581848499121   -0.023957380398
 C   -2.028483692190   -0.048441780887   -0.023002420090
 N   -1.758342756064   -1.369327255855   -0.026466609037
 C   -0.430213587601   -1.587521148605   -0.010899180374
 H   -0.116405304631   -2.634199881095   -0.007519609683
 N    0.582135855440   -0.679540191464    0.003072089901
 C    0.269919111533    0.631280891785   -0.001574313999
 N    1.277546066335    1.555779529090   -0.043396150930
 H    2.208997603722    1.225249420338    0.179061783203
 H    1.044808560308    2.515750284129    0.181414094510
 C   -1.095581729341    1.007974745652   -0.010345401714
 N   -1.719111040532    2.246940446282   -0.000467192696
 C   -3.019036527689    1.938861057921   -0.008922045854
 H   -3.829090056476    2.665441859023   -0.004873907991
 H   -4.164399101627    0.121591375287   -0.031560436331
NA    6.474496415316   -2.607122377686    0.070258009415
