16

 N   -3.288258683242    0.590893468137   -0.024272642992
 C   -2.056132950975   -0.039396811871   -0.023317682684
 N   -1.785992014849   -1.360282286839   -0.026781871631
 C   -0.457862846386   -1.578476179589   -0.011214442968
 H   -0.144054563416   -2.625154912079   -0.007834872277
 N    0.554486596655   -0.670495222448    0.002756827307
 C    0.242269852748    0.640325860801   -0.001889576593
 N    1.249896807550    1.564824498106   -0.043711413524
 H    2.181348344937    1.234294389354    0.178746520609
 H    1.017159301523    2.524795253145    0.181098831916
 C   -1.123230988126    1.017019714668   -0.010660664308
 N   -1.746760299317    2.255985415298   -0.000782455290
 C   -3.046685786474    1.947906026937   -0.009237308448
 H   -3.856739315261    2.674486828039   -0.005189170585
 H   -4.192048360412    0.130636344303   -0.031875698925
NA    6.636923303623   -2.660257479193    0.072110034547
