16

 N   -3.371206459597    0.618028375185   -0.025218430774
 C   -2.139080727330   -0.012261904823   -0.024263470466
 N   -1.868939791204   -1.333147379791   -0.027727659413
 C   -0.540810622741   -1.551341272541   -0.012160230750
 H   -0.227002339771   -2.598020005031   -0.008780660059
 N    0.471538820300   -0.643360315400    0.001811039525
 C    0.159322076393    0.667460767849   -0.002835364375
 N    1.166949031195    1.591959405154   -0.044657201306
 H    2.098400568582    1.261429296402    0.177800732827
 H    0.934211525168    2.551930160193    0.180153044134
 C   -1.206178764481    1.044154621716   -0.011606452090
 N   -1.829708075672    2.283120322346   -0.001728243072
 C   -3.129633562829    1.975040933985   -0.010183096230
 H   -3.939687091616    2.701621735087   -0.006134958367
 H   -4.274996136767    0.157771251351   -0.032821486707
NA    7.124203968547   -2.819662783715    0.077666109943
