16

 N   -3.398855718382    0.627073344201   -0.025533693368
 C   -2.166729986115   -0.003216935807   -0.024578733060
 N   -1.896589049989   -1.324102410775   -0.028042922007
 C   -0.568459881526   -1.542296303525   -0.012475493344
 H   -0.254651598556   -2.588975036015   -0.009095922653
 N    0.443889561515   -0.634315346384    0.001495776931
 C    0.131672817608    0.676505736865   -0.003150626969
 N    1.139299772410    1.601004374170   -0.044972463900
 H    2.070751309797    1.270474265418    0.177485470233
 H    0.906562266383    2.560975129209    0.179837781540
 C   -1.233828023266    1.053199590732   -0.011921714684
 N   -1.857357334457    2.292165291362   -0.002043505666
 C   -3.157282821614    1.984085903001   -0.010498358824
 H   -3.967336350401    2.710666704103   -0.006450220961
 H   -4.302645395552    0.166816220367   -0.033136749301
NA    7.286630856855   -2.872797885222    0.079518135076
