16

 N   -3.412680347774    0.631595828709   -0.025691324665
 C   -2.180554615507    0.001305548701   -0.024736364357
 N   -1.910413679381   -1.319579926267   -0.028200553304
 C   -0.582284510918   -1.537773819017   -0.012633124641
 H   -0.268476227948   -2.584452551507   -0.009253553950
 N    0.430064932123   -0.629792861876    0.001338145634
 C    0.117848188216    0.681028221373   -0.003308258266
 N    1.125475143018    1.605526858678   -0.045130095197
 H    2.056926680405    1.274996749926    0.177327838936
 H    0.892737636991    2.565497613717    0.179680150243
 C   -1.247652652658    1.057722075240   -0.012079345981
 N   -1.871181963849    2.296687775870   -0.002201136963
 C   -3.171107451006    1.988608387509   -0.010655990121
 H   -3.981160979793    2.715189188611   -0.006607852258
 H   -4.316470024944    0.171338704875   -0.033294380598
NA    7.367844301009   -2.899365435975    0.080444147642
