16

 N   -3.426504977167    0.636118313218   -0.025848955962
 C   -2.194379244900    0.005828033210   -0.024893995654
 N   -1.924238308774   -1.315057441758   -0.028358184601
 C   -0.596109140311   -1.533251334508   -0.012790755938
 H   -0.282300857341   -2.579930066998   -0.009411185247
 N    0.416240302730   -0.625270377367    0.001180514337
 C    0.104023558823    0.685550705882   -0.003465889563
 N    1.111650513625    1.610049343187   -0.045287726494
 H    2.043102051012    1.279519234435    0.177170207639
 H    0.878913007598    2.570020098226    0.179522518946
 C   -1.261477282051    1.062244559749   -0.012236977278
 N   -1.885006593242    2.301210260379   -0.002358768260
 C   -3.184932080399    1.993130872018   -0.010813621418
 H   -3.994985609186    2.719711673120   -0.006765483555
 H   -4.330294654337    0.175861189384   -0.033452011895
NA    7.449057745163   -2.925932986729    0.081370160208
