16

 N   -3.454154235952    0.645163282234   -0.026164218556
 C   -2.222028503685    0.014873002226   -0.025209258248
 N   -1.951887567559   -1.306012472742   -0.028673447195
 C   -0.623758399096   -1.524206365492   -0.013106018532
 H   -0.309950116126   -2.570885097982   -0.009726447841
 N    0.388591043945   -0.616225408351    0.000865251743
 C    0.076374300038    0.694595674898   -0.003781152157
 N    1.084001254840    1.619094312203   -0.045602989088
 H    2.015452792227    1.288564203451    0.176854945045
 H    0.851263748813    2.579065067242    0.179207256352
 C   -1.289126540836    1.071289528765   -0.012552239872
 N   -1.912655852027    2.310255229395   -0.002674030854
 C   -3.212581339184    2.002175841034   -0.011128884012
 H   -4.022634867971    2.728756642136   -0.007080746149
 H   -4.357943913122    0.184906158400   -0.033767274489
NA    7.611484633471   -2.979068088236    0.083222185340
