16

 N   -3.661523676839    0.713000549855   -0.028528688012
 C   -2.429397944572    0.082710269847   -0.027573727704
 N   -2.159257008446   -1.238175205121   -0.031037916651
 C   -0.831127839983   -1.456369097871   -0.015470487988
 H   -0.517319557013   -2.503047830361   -0.012090917297
 N    0.181221603058   -0.548388140730   -0.001499217713
 C   -0.130995140849    0.762432942519   -0.006145621613
 N    0.876631813953    1.686931579824   -0.047967458544
 H    1.808083351340    1.356401471072    0.174490475589
 H    0.643894307926    2.646902334863    0.176842786896
 C   -1.496495981723    1.139126796386   -0.014916709328
 N   -2.120025292914    2.378092497016   -0.005038500310
 C   -3.419950780071    2.070013108655   -0.013493353468
 H   -4.230004308858    2.796593909757   -0.009445215605
 H   -4.565313354009    0.252743426021   -0.036131743945
NA    8.829686295779   -3.377581349540    0.097112373831
