16

 N   -3.689172935623    0.722045518871   -0.028843950606
 C   -2.457047203356    0.091755238863   -0.027888990298
 N   -2.186906267230   -1.229130236105   -0.031353179245
 C   -0.858777098767   -1.447324128855   -0.015785750582
 H   -0.544968815797   -2.494002861345   -0.012406179891
 N    0.153572344274   -0.539343171714   -0.001814480307
 C   -0.158644399633    0.771477911535   -0.006460884207
 N    0.848982555169    1.695976548840   -0.048282721138
 H    1.780434092556    1.365446440088    0.174175212995
 H    0.616245049142    2.655947303879    0.176527524302
 C   -1.524145240507    1.148171765402   -0.015231971922
 N   -2.147674551698    2.387137466032   -0.005353762904
 C   -3.447600038855    2.079058077671   -0.013808616062
 H   -4.257653567642    2.805638878773   -0.009760478199
 H   -4.592962612793    0.261788395037   -0.036447006539
NA    8.992113184087   -3.430716451047    0.098964398963
