16

 N   -3.730646823801    0.735612972395   -0.029316844497
 C   -2.498521091534    0.105322692387   -0.028361884189
 N   -2.228380155408   -1.215562782581   -0.031826073136
 C   -0.900250986945   -1.433756675331   -0.016258644473
 H   -0.586442703975   -2.480435407821   -0.012879073782
 N    0.112098456096   -0.525775718190   -0.002287374198
 C   -0.200118287811    0.785045365059   -0.006933778098
 N    0.807508666991    1.709544002364   -0.048755615029
 H    1.738960204378    1.379013893612    0.173702319104
 H    0.574771160964    2.669514757403    0.176054630411
 C   -1.565619128685    1.161739218926   -0.015704865813
 N   -2.189148439876    2.400704919556   -0.005826656795
 C   -3.489073927033    2.092625531195   -0.014281509953
 H   -4.299127455820    2.819206332297   -0.010233372090
 H   -4.634436500971    0.275355848561   -0.036919900430
NA    9.235753516549   -3.510419103308    0.101742436662
