13

 C    1.740088304463    2.564186192411    0.000000000000
 O    2.030398304463    1.156036192411    0.000000000000
 H    2.978098304463    0.969216192411    0.000000000000
 H    0.636158304463    2.580256192411    0.000000000000
 H    2.125138304463    3.051706192411    0.904240000000
 H    2.125138304463    3.051706192411   -0.904240000000
RB   -0.199071695537   -0.113343807589    0.000000000000
 O   -1.502594110460   -0.855522568934    0.000000000000
 C   -1.212287173358   -2.263678971885    0.000000000000
 H   -2.450295038806   -0.668699031840    0.000000000000
 H   -0.108354102815   -2.279746898389    0.000000000000
 H   -1.597333527745   -2.751197851707   -0.904239555201
 H   -1.597333527745   -2.751197851707    0.904239555201
