13

 C    1.758771488476    2.574823725153    0.000000000000
 O    2.049081488476    1.166673725153    0.000000000000
 H    2.996781488476    0.979853725153    0.000000000000
 H    0.654841488476    2.590893725153    0.000000000000
 H    2.143821488476    3.062343725153    0.904240000000
 H    2.143821488476    3.062343725153   -0.904240000000
RB   -0.180388511524   -0.102706274847    0.000000000000
 O   -1.570812420776   -0.894363620282    0.000000000000
 C   -1.280505483673   -2.302520023232    0.000000000000
 H   -2.518513349121   -0.707540083187    0.000000000000
 H   -0.176572413130   -2.318587949737    0.000000000000
 H   -1.665551838060   -2.790038903054   -0.904239555201
 H   -1.665551838060   -2.790038903054    0.904239555201
