13

 C    1.833504224528    2.617373856121    0.000000000000
 O    2.123814224528    1.209223856121    0.000000000000
 H    3.071514224528    1.022403856121    0.000000000000
 H    0.729574224528    2.633443856121    0.000000000000
 H    2.218554224528    3.104893856121    0.904240000000
 H    2.218554224528    3.104893856121   -0.904240000000
RB   -0.105655775472   -0.060156143879    0.000000000000
 O   -1.843685662036   -1.049727825672    0.000000000000
 C   -1.553378724934   -2.457884228623    0.000000000000
 H   -2.791386590382   -0.862904288578    0.000000000000
 H   -0.449445654391   -2.473952155127    0.000000000000
 H   -1.938425079321   -2.945403108445   -0.904239555201
 H   -1.938425079321   -2.945403108445    0.904239555201
