13

 C    1.852187408541    2.628011388863    0.000000000000
 O    2.142497408541    1.219861388863    0.000000000000
 H    3.090197408541    1.033041388863    0.000000000000
 H    0.748257408541    2.644081388863    0.000000000000
 H    2.237237408541    3.115531388863    0.904240000000
 H    2.237237408541    3.115531388863   -0.904240000000
RB   -0.086972591459   -0.049518611137    0.000000000000
 O   -1.911903972352   -1.088568877020    0.000000000000
 C   -1.621597035249   -2.496725279970    0.000000000000
 H   -2.859604900697   -0.901745339925    0.000000000000
 H   -0.517663964706   -2.512793206475    0.000000000000
 H   -2.006643389636   -2.984244159792   -0.904239555201
 H   -2.006643389636   -2.984244159792    0.904239555201
