13

 C    1.889553776568    2.649286454347    0.000000000000
 O    2.179863776568    1.241136454347    0.000000000000
 H    3.127563776568    1.054316454347    0.000000000000
 H    0.785623776568    2.665356454347    0.000000000000
 H    2.274603776568    3.136806454347    0.904240000000
 H    2.274603776568    3.136806454347   -0.904240000000
RB   -0.049606223432   -0.028243545653    0.000000000000
 O   -2.048340592982   -1.166250979715    0.000000000000
 C   -1.758033655879   -2.574407382665    0.000000000000
 H   -2.996041521328   -0.979427442621    0.000000000000
 H   -0.654100585337   -2.590475309170    0.000000000000
 H   -2.143080010267   -3.061926262488   -0.904239555201
 H   -2.143080010267   -3.061926262488    0.904239555201
