13

 C    1.945603328607    2.681199052573    0.000000000000
 O    2.235913328607    1.273049052573    0.000000000000
 H    3.183613328607    1.086229052573    0.000000000000
 H    0.841673328607    2.697269052573    0.000000000000
 H    2.330653328607    3.168719052573    0.904240000000
 H    2.330653328607    3.168719052573   -0.904240000000
RB    0.006443328607    0.003669052573    0.000000000000
 O   -2.252995523928   -1.282774133758    0.000000000000
 C   -1.962688586825   -2.690930536708    0.000000000000
 H   -3.200696452274   -1.095950596663    0.000000000000
 H   -0.858755516282   -2.706998463213    0.000000000000
 H   -2.347734941212   -3.178449416530   -0.904239555201
 H   -2.347734941212   -3.178449416530    0.904239555201
