13

 C    2.020336064659    2.723749183542    0.000000000000
 O    2.310646064659    1.315599183542    0.000000000000
 H    3.258346064659    1.128779183542    0.000000000000
 H    0.916406064659    2.739819183542    0.000000000000
 H    2.405386064659    3.211269183542    0.904240000000
 H    2.405386064659    3.211269183542   -0.904240000000
RB    0.081176064659    0.046219183542    0.000000000000
 O   -2.525868765189   -1.438138339148    0.000000000000
 C   -2.235561828086   -2.846294742099    0.000000000000
 H   -3.473569693534   -1.251314802054    0.000000000000
 H   -1.131628757543   -2.862362668603    0.000000000000
 H   -2.620608182473   -3.333813621921   -0.904239555201
 H   -2.620608182473   -3.333813621921    0.904239555201
