13

 C    2.039019248672    2.734386716284    0.000000000000
 O    2.329329248672    1.326236716284    0.000000000000
 H    3.277029248672    1.139416716284    0.000000000000
 H    0.935089248672    2.750456716284    0.000000000000
 H    2.424069248672    3.221906716284    0.904240000000
 H    2.424069248672    3.221906716284   -0.904240000000
RB    0.099859248672    0.056856716284    0.000000000000
 O   -2.594087075504   -1.476979390496    0.000000000000
 C   -2.303780138401   -2.885135793446    0.000000000000
 H   -3.541788003850   -1.290155853401    0.000000000000
 H   -1.199847067859   -2.901203719951    0.000000000000
 H   -2.688826492789   -3.372654673268   -0.904239555201
 H   -2.688826492789   -3.372654673268    0.904239555201
