13

 C    2.076385616698    2.755661781768    0.000000000000
 O    2.366695616698    1.347511781768    0.000000000000
 H    3.314395616698    1.160691781768    0.000000000000
 H    0.972455616698    2.771731781768    0.000000000000
 H    2.461435616698    3.243181781768    0.904240000000
 H    2.461435616698    3.243181781768   -0.904240000000
RB    0.137225616698    0.078131781768    0.000000000000
 O   -2.730523696134   -1.554661493191    0.000000000000
 C   -2.440216759032   -2.962817896142    0.000000000000
 H   -3.678224624480   -1.367837956097    0.000000000000
 H   -1.336283688489   -2.978885822646    0.000000000000
 H   -2.825263113419   -3.450336775964   -0.904239555201
 H   -2.825263113419   -3.450336775964    0.904239555201
