13

 C    2.095068800711    2.766299314510    0.000000000000
 O    2.385378800711    1.358149314510    0.000000000000
 H    3.333078800711    1.171329314510    0.000000000000
 H    0.991138800711    2.782369314510    0.000000000000
 H    2.480118800711    3.253819314510    0.904240000000
 H    2.480118800711    3.253819314510   -0.904240000000
RB    0.155908800711    0.088769314510    0.000000000000
 O   -2.798742006450   -1.593502544539    0.000000000000
 C   -2.508435069347   -3.001658947489    0.000000000000
 H   -3.746442934795   -1.406679007444    0.000000000000
 H   -1.404501998804   -3.017726873994    0.000000000000
 H   -2.893481423734   -3.489177827311   -0.904239555201
 H   -2.893481423734   -3.489177827311    0.904239555201
