13

 C    2.113751984724    2.776936847252    0.000000000000
 O    2.404061984724    1.368786847252    0.000000000000
 H    3.351761984724    1.181966847252    0.000000000000
 H    1.009821984724    2.793006847252    0.000000000000
 H    2.498801984724    3.264456847252    0.904240000000
 H    2.498801984724    3.264456847252   -0.904240000000
RB    0.174591984724    0.099406847252    0.000000000000
 O   -2.866960316765   -1.632343595886    0.000000000000
 C   -2.576653379662   -3.040499998837    0.000000000000
 H   -3.814661245111   -1.445520058792    0.000000000000
 H   -1.472720309119   -3.056567925341    0.000000000000
 H   -2.961699734050   -3.528018878659   -0.904239555201
 H   -2.961699734050   -3.528018878659    0.904239555201
