13

 C    2.151118352750    2.798211912736    0.000000000000
 O    2.441428352750    1.390061912736    0.000000000000
 H    3.389128352750    1.203241912736    0.000000000000
 H    1.047188352750    2.814281912736    0.000000000000
 H    2.536168352750    3.285731912736    0.904240000000
 H    2.536168352750    3.285731912736   -0.904240000000
RB    0.211958352750    0.120681912736    0.000000000000
 O   -3.003396937395   -1.710025698582    0.000000000000
 C   -2.713090000293   -3.118182101532    0.000000000000
 H   -3.951097865741   -1.523202161487    0.000000000000
 H   -1.609156929750   -3.134250028036    0.000000000000
 H   -3.098136354680   -3.605700981354   -0.904239555201
 H   -3.098136354680   -3.605700981354    0.904239555201
