13

 C    2.188484720776    2.819486978220    0.000000000000
 O    2.478794720776    1.411336978220    0.000000000000
 H    3.426494720776    1.224516978220    0.000000000000
 H    1.084554720776    2.835556978220    0.000000000000
 H    2.573534720776    3.307006978220    0.904240000000
 H    2.573534720776    3.307006978220   -0.904240000000
RB    0.249324720776    0.141956978220    0.000000000000
 O   -3.139833558026   -1.787707801277    0.000000000000
 C   -2.849526620923   -3.195864204227    0.000000000000
 H   -4.087534486371   -1.600884264182    0.000000000000
 H   -1.745593550380   -3.211932130732    0.000000000000
 H   -3.234572975310   -3.683383084049   -0.904239555201
 H   -3.234572975310   -3.683383084049    0.904239555201
