13

 C    2.281900640841    2.872674641931    0.000000000000
 O    2.572210640841    1.464524641931    0.000000000000
 H    3.519910640841    1.277704641931    0.000000000000
 H    1.177970640841    2.888744641931    0.000000000000
 H    2.666950640841    3.360194641931    0.904240000000
 H    2.666950640841    3.360194641931   -0.904240000000
RB    0.342740640841    0.195144641931    0.000000000000
 O   -3.480925109602   -1.981913058015    0.000000000000
 C   -3.190618172499   -3.390069460965    0.000000000000
 H   -4.428626037948   -1.795089520920    0.000000000000
 H   -2.086685101956   -3.406137387470    0.000000000000
 H   -3.575664526887   -3.877588340787   -0.904239555201
 H   -3.575664526887   -3.877588340787    0.904239555201
