13

 C    2.300583824854    2.883312174673    0.000000000000
 O    2.590893824854    1.475162174673    0.000000000000
 H    3.538593824854    1.288342174673    0.000000000000
 H    1.196653824854    2.899382174673    0.000000000000
 H    2.685633824854    3.370832174673    0.904240000000
 H    2.685633824854    3.370832174673   -0.904240000000
RB    0.361423824854    0.205782174673    0.000000000000
 O   -3.549143419917   -2.020754109362    0.000000000000
 C   -3.258836482814   -3.428910512313    0.000000000000
 H   -4.496844348263   -1.833930572268    0.000000000000
 H   -2.154903412272   -3.444978438817    0.000000000000
 H   -3.643882837202   -3.916429392135   -0.904239555201
 H   -3.643882837202   -3.916429392135    0.904239555201
