13

 C    2.319267008867    2.893949707415    0.000000000000
 O    2.609577008867    1.485799707415    0.000000000000
 H    3.557277008867    1.298979707415    0.000000000000
 H    1.215337008867    2.910019707415    0.000000000000
 H    2.704317008867    3.381469707415    0.904240000000
 H    2.704317008867    3.381469707415   -0.904240000000
RB    0.380107008867    0.216419707415    0.000000000000
 O   -3.617361730232   -2.059595160710    0.000000000000
 C   -3.327054793130   -3.467751563660    0.000000000000
 H   -4.565062658578   -1.872771623615    0.000000000000
 H   -2.223121722587   -3.483819490165    0.000000000000
 H   -3.712101147517   -3.955270443482   -0.904239555201
 H   -3.712101147517   -3.955270443482    0.904239555201
