13

 C    2.412682928932    2.947137371125    0.000000000000
 O    2.702992928932    1.538987371125    0.000000000000
 H    3.650692928932    1.352167371125    0.000000000000
 H    1.308752928932    2.963207371125    0.000000000000
 H    2.797732928932    3.434657371125    0.904240000000
 H    2.797732928932    3.434657371125   -0.904240000000
RB    0.473522928932    0.269607371125    0.000000000000
 O   -3.958453281808   -2.253800417448    0.000000000000
 C   -3.668146344706   -3.661956820398    0.000000000000
 H   -4.906154210154   -2.066976880353    0.000000000000
 H   -2.564213274163   -3.678024746903    0.000000000000
 H   -4.053192699093   -4.149475700220   -0.904239555201
 H   -4.053192699093   -4.149475700220    0.904239555201
