13

 C    2.487415664984    2.989687502093    0.000000000000
 O    2.777725664984    1.581537502093    0.000000000000
 H    3.725425664984    1.394717502093    0.000000000000
 H    1.383485664984    3.005757502093    0.000000000000
 H    2.872465664984    3.477207502093    0.904240000000
 H    2.872465664984    3.477207502093   -0.904240000000
RB    0.548255664984    0.312157502093    0.000000000000
 O   -4.231326523069   -2.409164622838    0.000000000000
 C   -3.941019585967   -3.817321025789    0.000000000000
 H   -5.179027451415   -2.222341085744    0.000000000000
 H   -2.837086515424   -3.833388952293    0.000000000000
 H   -4.326065940354   -4.304839905611   -0.904239555201
 H   -4.326065940354   -4.304839905611    0.904239555201
