13

 C    2.580831585049    3.042875165804    0.000000000000
 O    2.871141585049    1.634725165804    0.000000000000
 H    3.818841585049    1.447905165804    0.000000000000
 H    1.476901585049    3.058945165804    0.000000000000
 H    2.965881585049    3.530395165804    0.904240000000
 H    2.965881585049    3.530395165804   -0.904240000000
RB    0.641671585049    0.365345165804    0.000000000000
 O   -4.572418074645   -2.603369879576    0.000000000000
 C   -4.282111137543   -4.011526282527    0.000000000000
 H   -5.520119002991   -2.416546342482    0.000000000000
 H   -3.178178067000   -4.027594209031    0.000000000000
 H   -4.667157491930   -4.499045162349   -0.904239555201
 H   -4.667157491930   -4.499045162349    0.904239555201
