13

 C    2.767663425179    3.149250493224    0.000000000000
 O    3.057973425179    1.741100493224    0.000000000000
 H    4.005673425179    1.554280493224    0.000000000000
 H    1.663733425179    3.165320493224    0.000000000000
 H    3.152713425179    3.636770493224    0.904240000000
 H    3.152713425179    3.636770493224   -0.904240000000
RB    0.828503425179    0.471720493224    0.000000000000
 O   -5.254601177798   -2.991780393052    0.000000000000
 C   -4.964294240695   -4.399936796003    0.000000000000
 H   -6.202302106143   -2.804956855958    0.000000000000
 H   -3.860361170152   -4.416004722507    0.000000000000
 H   -5.349340595082   -4.887455675825   -0.904239555201
 H   -5.349340595082   -4.887455675825    0.904239555201
