8

 N    0.395155606723   -1.188485987560   -0.678199288264
 H   -0.009493393277   -0.369876987560   -0.228903288264
 H   -0.009493393277   -2.007094987560   -0.228903288264
 C    1.855593606723   -1.188485987560   -0.540162288264
 H    2.254696606723   -2.070426987560   -1.046551288264
 H    2.224274606723   -1.188485987560    0.495667711736
 H    2.254696606723   -0.306544987560   -1.046551288264
RB   -0.407101772565    0.434488765873    0.212575263224
