8

 N    0.424272016964   -1.247388778549   -0.710528261413
 H    0.019623016964   -0.428779778549   -0.261232261413
 H    0.019623016964   -2.065997778549   -0.261232261413
 C    1.884710016964   -1.247388778549   -0.572491261413
 H    2.283813016964   -2.129329778549   -1.078880261413
 H    2.253391016964   -1.247388778549    0.463338738587
 H    2.283813016964   -0.365447778549   -1.078880261413
RB   -0.417746200253    0.456022550227    0.224394145223
