8

 N    0.482504837447   -1.365194360528   -0.775186207711
 H    0.077855837447   -0.546585360528   -0.325890207711
 H    0.077855837447   -2.183803360528   -0.325890207711
 C    1.942942837447   -1.365194360528   -0.637149207711
 H    2.342045837447   -2.247135360528   -1.143538207711
 H    2.311623837447   -1.365194360528    0.398680792289
 H    2.342045837447   -0.483253360528   -1.143538207711
RB   -0.439035055628    0.499090118935    0.248031909223
