8

 N    0.511621247688   -1.424097151518   -0.807515180859
 H    0.106972247688   -0.605488151518   -0.358219180859
 H    0.106972247688   -2.242706151518   -0.358219180859
 C    1.972059247688   -1.424097151518   -0.669478180859
 H    2.371162247688   -2.306038151518   -1.175867180859
 H    2.340740247688   -1.424097151518    0.366351819141
 H    2.371162247688   -0.542156151518   -1.175867180859
RB   -0.449679483316    0.520623903288    0.259850791223
