8

 N    0.657203298894   -1.718611106466   -0.969160046604
 H    0.252554298894   -0.900002106466   -0.519864046604
 H    0.252554298894   -2.537220106466   -0.519864046604
 C    2.117641298894   -1.718611106466   -0.831123046604
 H    2.516744298894   -2.600552106466   -1.337512046604
 H    2.486322298894   -1.718611106466    0.204706953396
 H    2.516744298894   -0.836670106466   -1.337512046604
RB   -0.502901621754    0.628292825057    0.318945201222
