8

 N    0.744552529617   -1.895319479435   -1.066146966051
 H    0.339903529617   -1.076710479435   -0.616850966051
 H    0.339903529617   -2.713928479435   -0.616850966051
 C    2.204990529617   -1.895319479435   -0.928109966051
 H    2.604093529617   -2.777260479435   -1.434498966051
 H    2.573671529617   -1.895319479435    0.107720033949
 H    2.604093529617   -1.013378479435   -1.434498966051
RB   -0.534834904817    0.692894178118    0.354401847222
