8

 N    0.773668939859   -1.954222270424   -1.098475939200
 H    0.369019939859   -1.135613270424   -0.649179939200
 H    0.369019939859   -2.772831270424   -0.649179939200
 C    2.234106939859   -1.954222270424   -0.960438939200
 H    2.633209939859   -2.836163270424   -1.466827939200
 H    2.602787939859   -1.954222270424    0.075391060800
 H    2.633209939859   -1.072281270424   -1.466827939200
RB   -0.545479332505    0.714427962472    0.366220729221
