8

 N    0.919250991065   -2.248736225372   -1.260120804944
 H    0.514601991065   -1.430127225372   -0.810824804944
 H    0.514601991065   -3.067345225372   -0.810824804944
 C    2.379688991065   -2.248736225372   -1.122083804944
 H    2.778791991065   -3.130677225372   -1.628472804944
 H    2.748369991065   -2.248736225372   -0.086253804944
 H    2.778791991065   -1.366795225372   -1.628472804944
RB   -0.598701470943    0.822096884241    0.425315139221
