8

 N    0.977483811547   -2.366541807351   -1.324778751242
 H    0.572834811547   -1.547932807351   -0.875482751242
 H    0.572834811547   -3.185150807351   -0.875482751242
 C    2.437921811547   -2.366541807351   -1.186741751242
 H    2.837024811547   -3.248482807351   -1.693130751242
 H    2.806602811547   -2.366541807351   -0.150911751242
 H    2.837024811547   -1.484600807351   -1.693130751242
RB   -0.619990326318    0.865164452948    0.448952903220
