8

 N    1.152182272994   -2.719958553289   -1.518752590135
 H    0.747533272994   -1.901349553289   -1.069456590135
 H    0.747533272994   -3.538567553289   -1.069456590135
 C    2.612620272994   -2.719958553289   -1.380715590135
 H    3.011723272994   -3.601899553289   -1.887104590135
 H    2.981301272994   -2.719958553289   -0.344885590135
 H    3.011723272994   -1.838017553289   -1.887104590135
RB   -0.683856892444    0.994367159071    0.519866195219
