8

 N    1.210415093477   -2.837764135268   -1.583410536433
 H    0.805766093477   -2.019155135268   -1.134114536433
 H    0.805766093477   -3.656373135268   -1.134114536433
 C    2.670853093477   -2.837764135268   -1.445373536433
 H    3.069956093477   -3.719705135268   -1.951762536433
 H    3.039534093477   -2.837764135268   -0.409543536433
 H    3.069956093477   -1.955823135268   -1.951762536433
RB   -0.705145747820    1.037434727778    0.543503959219
