8

 N    1.443346375406   -3.308986463184   -1.842042321624
 H    1.038697375406   -2.490377463184   -1.392746321624
 H    1.038697375406   -4.127595463184   -1.392746321624
 C    2.903784375406   -3.308986463184   -1.704005321624
 H    3.302887375406   -4.190927463184   -2.210394321624
 H    3.272465375406   -3.308986463184   -0.668175321624
 H    3.302887375406   -2.427045463184   -2.210394321624
RB   -0.790301169321    1.209705002608    0.638055015218
