8

 N    1.472462785648   -3.367889254174   -1.874371294773
 H    1.067813785648   -2.549280254174   -1.425075294773
 H    1.067813785648   -4.186498254174   -1.425075294773
 C    2.932900785648   -3.367889254174   -1.736334294773
 H    3.332003785648   -4.249830254174   -2.242723294773
 H    3.301581785648   -3.367889254174   -0.700504294773
 H    3.332003785648   -2.485948254174   -2.242723294773
RB   -0.800945597009    1.231238786962    0.649873897217
