8

 N    1.501579195889   -3.426792045163   -1.906700267922
 H    1.096930195889   -2.608183045163   -1.457404267922
 H    1.096930195889   -4.245401045163   -1.457404267922
 C    2.962017195889   -3.426792045163   -1.768663267922
 H    3.361120195889   -4.308733045163   -2.275052267922
 H    3.330698195889   -3.426792045163   -0.732833267922
 H    3.361120195889   -2.544851045163   -2.275052267922
RB   -0.811590024696    1.252772571316    0.661692779217
