8

 N    1.530695606130   -3.485694836153   -1.939029241071
 H    1.126046606130   -2.667085836153   -1.489733241071
 H    1.126046606130   -4.304303836153   -1.489733241071
 C    2.991133606130   -3.485694836153   -1.800992241071
 H    3.390236606130   -4.367635836153   -2.307381241071
 H    3.359814606130   -3.485694836153   -0.765162241071
 H    3.390236606130   -2.603753836153   -2.307381241071
RB   -0.822234452384    1.274306355670    0.673511661217
