8

 N    1.647161247095   -3.721306000111   -2.068345133667
 H    1.242512247095   -2.902697000111   -1.619049133667
 H    1.242512247095   -4.539915000111   -1.619049133667
 C    3.107599247095   -3.721306000111   -1.930308133667
 H    3.506702247095   -4.603247000111   -2.436697133667
 H    3.476280247095   -3.721306000111   -0.894478133667
 H    3.506702247095   -2.839365000111   -2.436697133667
RB   -0.864812163134    1.360441493085    0.720787189216
