8

 N    1.676277657336   -3.780208791101   -2.100674106816
 H    1.271628657336   -2.961599791101   -1.651378106816
 H    1.271628657336   -4.598817791101   -1.651378106816
 C    3.136715657336   -3.780208791101   -1.962637106816
 H    3.535818657336   -4.662149791101   -2.469026106816
 H    3.505396657336   -3.780208791101   -0.926807106816
 H    3.535818657336   -2.898267791101   -2.469026106816
RB   -0.875456590822    1.381975277438    0.732606071216
