8

 N    1.734510477818   -3.898014373080   -2.165332053113
 H    1.329861477818   -3.079405373080   -1.716036053113
 H    1.329861477818   -4.716623373080   -1.716036053113
 C    3.194948477818   -3.898014373080   -2.027295053113
 H    3.594051477818   -4.779955373080   -2.533684053113
 H    3.563629477818   -3.898014373080   -0.991465053113
 H    3.594051477818   -3.016073373080   -2.533684053113
RB   -0.896745446197    1.425042846146    0.756243835216
