8

 N    1.792743298301   -4.015819955059   -2.229989999411
 H    1.388094298301   -3.197210955059   -1.780693999411
 H    1.388094298301   -4.834428955059   -1.780693999411
 C    3.253181298301   -4.015819955059   -2.091952999411
 H    3.652284298301   -4.897760955059   -2.598341999411
 H    3.621862298301   -4.015819955059   -1.056122999411
 H    3.652284298301   -3.133878955059   -2.598341999411
RB   -0.918034301573    1.468110414853    0.779881599216
