8

 N    1.821859708542   -4.074722746049   -2.262318972560
 H    1.417210708542   -3.256113746049   -1.813022972560
 H    1.417210708542   -4.893331746049   -1.813022972560
 C    3.282297708542   -4.074722746049   -2.124281972560
 H    3.681400708542   -4.956663746049   -2.630670972560
 H    3.650978708542   -4.074722746049   -1.088451972560
 H    3.681400708542   -3.192781746049   -2.630670972560
RB   -0.928678729260    1.489644199207    0.791700481215
