8

 N    1.850976118783   -4.133625537038   -2.294647945709
 H    1.446327118783   -3.315016537038   -1.845351945709
 H    1.446327118783   -4.952234537038   -1.845351945709
 C    3.311414118783   -4.133625537038   -2.156610945709
 H    3.710517118783   -5.015566537038   -2.662999945709
 H    3.680095118783   -4.133625537038   -1.120780945709
 H    3.710517118783   -3.251684537038   -2.662999945709
RB   -0.939323156948    1.511177983561    0.803519363215
