8

 N    1.880092529024   -4.192528328028   -2.326976918858
 H    1.475443529024   -3.373919328028   -1.877680918858
 H    1.475443529024   -5.011137328028   -1.877680918858
 C    3.340530529024   -4.192528328028   -2.188939918858
 H    3.739633529024   -5.074469328028   -2.695328918858
 H    3.709211529024   -4.192528328028   -1.153109918858
 H    3.739633529024   -3.310587328028   -2.695328918858
RB   -0.949967584636    1.532711767915    0.815338245215
