8

 N    1.909208939266   -4.251431119017   -2.359305892007
 H    1.504559939266   -3.432822119017   -1.910009892007
 H    1.504559939266   -5.070040119017   -1.910009892007
 C    3.369646939266   -4.251431119017   -2.221268892007
 H    3.768749939266   -5.133372119017   -2.727657892007
 H    3.738327939266   -4.251431119017   -1.185438892007
 H    3.768749939266   -3.369490119017   -2.727657892007
RB   -0.960612012323    1.554245552268    0.827157127215
