8

 N    1.996558169989   -4.428139491986   -2.456292811454
 H    1.591909169989   -3.609530491986   -2.006996811454
 H    1.591909169989   -5.246748491986   -2.006996811454
 C    3.456996169989   -4.428139491986   -2.318255811454
 H    3.856099169989   -5.310080491986   -2.824644811454
 H    3.825677169989   -4.428139491986   -1.282425811454
 H    3.856099169989   -3.546198491986   -2.824644811454
RB   -0.992545295386    1.618846905330    0.862613773214
