8

 N    2.083907400713   -4.604847864955   -2.553279730900
 H    1.679258400713   -3.786238864955   -2.103983730900
 H    1.679258400713   -5.423456864955   -2.103983730900
 C    3.544345400713   -4.604847864955   -2.415242730900
 H    3.943448400713   -5.486788864955   -2.921631730900
 H    3.913026400713   -4.604847864955   -1.379412730900
 H    3.943448400713   -3.722906864955   -2.921631730900
RB   -1.024478578449    1.683448258391    0.898070419214
