8

 N    2.200373041678   -4.840459028913   -2.682595623496
 H    1.795724041678   -4.021850028913   -2.233299623496
 H    1.795724041678   -5.659068028913   -2.233299623496
 C    3.660811041678   -4.840459028913   -2.544558623496
 H    4.059914041678   -5.722400028913   -3.050947623496
 H    4.029492041678   -4.840459028913   -1.508728623496
 H    4.059914041678   -3.958518028913   -3.050947623496
RB   -1.067056289200    1.769583395806    0.945345947213
