8

 N    2.258605862160   -4.958264610892   -2.747253569794
 H    1.853956862160   -4.139655610892   -2.297957569794
 H    1.853956862160   -5.776873610892   -2.297957569794
 C    3.719043862160   -4.958264610892   -2.609216569794
 H    4.118146862160   -5.840205610892   -3.115605569794
 H    4.087724862160   -4.958264610892   -1.573386569794
 H    4.118146862160   -4.076323610892   -3.115605569794
RB   -1.088345144575    1.812650964513    0.968983711213
