8

 N    2.345955092884   -5.134972983861   -2.844240489240
 H    1.941306092884   -4.316363983861   -2.394944489240
 H    1.941306092884   -5.953581983861   -2.394944489240
 C    3.806393092884   -5.134972983861   -2.706203489240
 H    4.205496092884   -6.016913983861   -3.212592489240
 H    4.175074092884   -5.134972983861   -1.670373489240
 H    4.205496092884   -4.253031983861   -3.212592489240
RB   -1.120278427638    1.877252317575    1.004440357212
