8

 N    2.404187913366   -5.252778565840   -2.908898435538
 H    1.999538913366   -4.434169565840   -2.459602435538
 H    1.999538913366   -6.071387565840   -2.459602435538
 C    3.864625913366   -5.252778565840   -2.770861435538
 H    4.263728913366   -6.134719565840   -3.277250435538
 H    4.233306913366   -5.252778565840   -1.735031435538
 H    4.263728913366   -4.370837565840   -3.277250435538
RB   -1.141567283013    1.920319886282    1.028078121212
