8

 N    2.462420733848   -5.370584147819   -2.973556381836
 H    2.057771733848   -4.551975147819   -2.524260381836
 H    2.057771733848   -6.189193147819   -2.524260381836
 C    3.922858733848   -5.370584147819   -2.835519381836
 H    4.321961733848   -6.252525147819   -3.341908381836
 H    4.291539733848   -5.370584147819   -1.799689381836
 H    4.321961733848   -4.488643147819   -3.341908381836
RB   -1.162856138389    1.963387454990    1.051715885212
