8

 N    2.491537144090   -5.429486938809   -3.005885354985
 H    2.086888144090   -4.610877938809   -2.556589354985
 H    2.086888144090   -6.248095938809   -2.556589354985
 C    3.951975144090   -5.429486938809   -2.867848354985
 H    4.351078144090   -6.311427938809   -3.374237354985
 H    4.320656144090   -5.429486938809   -1.832018354985
 H    4.351078144090   -4.547545938809   -3.374237354985
RB   -1.173500566076    1.984921239343    1.063534767212
