8

 N    2.520653554331   -5.488389729798   -3.038214328134
 H    2.116004554331   -4.669780729798   -2.588918328134
 H    2.116004554331   -6.306998729798   -2.588918328134
 C    3.981091554331   -5.488389729798   -2.900177328134
 H    4.380194554331   -6.370330729798   -3.406566328134
 H    4.349772554331   -5.488389729798   -1.864347328134
 H    4.380194554331   -4.606448729798   -3.406566328134
RB   -1.184144993764    2.006455023697    1.075353649211
