8

 N    2.637119195296   -5.724000893757   -3.167530220729
 H    2.232470195296   -4.905391893757   -2.718234220729
 H    2.232470195296   -6.542609893757   -2.718234220729
 C    4.097557195296   -5.724000893757   -3.029493220729
 H    4.496660195296   -6.605941893757   -3.535882220729
 H    4.466238195296   -5.724000893757   -1.993663220729
 H    4.496660195296   -4.842059893757   -3.535882220729
RB   -1.226722704515    2.092590161112    1.122629177211
