8

 N    2.666235605537   -5.782903684746   -3.199859193878
 H    2.261586605537   -4.964294684746   -2.750563193878
 H    2.261586605537   -6.601512684746   -2.750563193878
 C    4.126673605537   -5.782903684746   -3.061822193878
 H    4.525776605537   -6.664844684746   -3.568211193878
 H    4.495354605537   -5.782903684746   -2.025992193878
 H    4.525776605537   -4.900962684746   -3.568211193878
RB   -1.237367132202    2.114123945466    1.134448059211
