8

 N    2.840934066984   -6.136320430684   -3.393833032772
 H    2.436285066984   -5.317711430684   -2.944537032772
 H    2.436285066984   -6.954929430684   -2.944537032772
 C    4.301372066984   -6.136320430684   -3.255796032772
 H    4.700475066984   -7.018261430684   -3.762185032772
 H    4.670053066984   -6.136320430684   -2.219966032772
 H    4.700475066984   -5.254379430684   -3.762185032772
RB   -1.301233698328    2.243326651588    1.205361351210
