8

 N    2.928283297708   -6.313028803652   -3.490819952218
 H    2.523634297708   -5.494419803652   -3.041523952218
 H    2.523634297708   -7.131637803652   -3.041523952218
 C    4.388721297708   -6.313028803652   -3.352782952218
 H    4.787824297708   -7.194969803652   -3.859171952218
 H    4.757402297708   -6.313028803652   -2.316952952218
 H    4.787824297708   -5.431087803652   -3.859171952218
RB   -1.333166981391    2.307928004650    1.240817997209
