8

 N    2.986516118190   -6.430834385632   -3.555477898516
 H    2.581867118190   -5.612225385632   -3.106181898516
 H    2.581867118190   -7.249443385632   -3.106181898516
 C    4.446954118190   -6.430834385632   -3.417440898516
 H    4.846057118190   -7.312775385632   -3.923829898516
 H    4.815635118190   -6.430834385632   -2.381610898516
 H    4.846057118190   -5.548893385632   -3.923829898516
RB   -1.354455836766    2.350995573357    1.264455761209
