16

 N   -1.518693254459    1.420998947419   -0.000265215621
 C   -0.286567522192    0.790708667411    0.000689744687
 N   -0.016426586066   -0.530176807557   -0.002774444260
 C    1.311702582397   -0.748370700307    0.012792984403
 H    1.625510865367   -1.795049432797    0.016172555094
 N    2.324052025438    0.159610256834    0.026764254678
 C    2.011835281531    1.470431340083    0.022117850778
 N    3.019462236333    2.394929977388   -0.019703986153
 H    3.950913773720    2.064399868636    0.202753947980
 H    2.786724730306    3.354900732427    0.205106259287
 C    0.646334440657    1.847125193950    0.013346763063
 N    0.022805129466    3.086090894580    0.023224972081
 C   -1.277120357691    2.778011506219    0.014770118923
 H   -2.087173886478    3.504592307321    0.018818256786
 H   -2.422482931629    0.960741823585   -0.007868271554
CS   -0.650134579963   -1.303695067239   -0.011922143927
