16

 N   -1.487261972196    1.459364678940    0.000188501127
 C   -0.255136239929    0.829074398932    0.001143461435
 N    0.015004696197   -0.491811076036   -0.002320727512
 C    1.343133864660   -0.710004968786    0.013246701151
 H    1.656942147630   -1.756683701276    0.016626271842
 N    2.355483307701    0.197975988355    0.027217971426
 C    2.043266563794    1.508797071604    0.022571567526
 N    3.050893518596    2.433295708909   -0.019250269405
 H    3.982345055983    2.102765600157    0.203207664728
 H    2.818156012569    3.393266463948    0.205559976035
 C    0.677765722920    1.885490925471    0.013800479811
 N    0.054236411729    3.124456626101    0.023678688829
 C   -1.245689075428    2.816377237740    0.015223835671
 H   -2.055742604215    3.542958038842    0.019271973534
 H   -2.391051649366    0.999107555106   -0.007414554806
CS   -0.682074097089   -1.342681161687   -0.012383197146
