16

 N   -1.424399407669    1.536096141980    0.001095934623
 C   -0.192273675402    0.905805861972    0.002050894931
 N    0.077867260724   -0.415079612996   -0.001413294016
 C    1.405996429187   -0.633273505746    0.014154134647
 H    1.719804712157   -1.679952238236    0.017533705338
 N    2.418345872228    0.274707451395    0.028125404922
 C    2.106129128321    1.585528534644    0.023479001022
 N    3.113756083123    2.510027171949   -0.018342835909
 H    4.045207620510    2.179497063197    0.204115098224
 H    2.881018577096    3.469997926988    0.206467409531
 C    0.740628287447    1.962222388511    0.014707913307
 N    0.117098976256    3.201188089141    0.024586122325
 C   -1.182826510901    2.893108700780    0.016131269167
 H   -1.992880039688    3.619689501882    0.020179407030
 H   -2.328189084839    1.075839018146   -0.006507121310
CS   -0.745953131341   -1.420653350583   -0.013305303583
