16

 N   -1.392968125405    1.574461873501    0.001549651372
 C   -0.160842393138    0.944171593493    0.002504611680
 N    0.109298542988   -0.376713881475   -0.000959577267
 C    1.437427711451   -0.594907774225    0.014607851396
 H    1.751235994421   -1.641586506715    0.017987422087
 N    2.449777154492    0.313073182916    0.028579121671
 C    2.137560410585    1.623894266165    0.023932717771
 N    3.145187365387    2.548392903470   -0.017889119160
 H    4.076638902774    2.217862794718    0.204568814973
 H    2.912449859360    3.508363658509    0.206921126280
 C    0.772059569711    2.000588120032    0.015161630056
 N    0.148530258520    3.239553820662    0.025039839074
 C   -1.151395228637    2.931474432301    0.016584985916
 H   -1.961448757424    3.658055233403    0.020633123779
 H   -2.296757802575    1.114204749667   -0.006053404561
CS   -0.777892648467   -1.459639445032   -0.013766356801
