16

 N   -1.361536843142    1.612827605021    0.002003368120
 C   -0.129411110875    0.982537325013    0.002958328428
 N    0.140729825251   -0.338348149955   -0.000505860519
 C    1.468858993714   -0.556542042705    0.015061568144
 H    1.782667276684   -1.603220775195    0.018441138835
 N    2.481208436755    0.351438914436    0.029032838419
 C    2.168991692848    1.662259997685    0.024386434519
 N    3.176618647650    2.586758634990   -0.017435402412
 H    4.108070185037    2.256228526238    0.205022531721
 H    2.943881141623    3.546729390029    0.207374843028
 C    0.803490851974    2.038953851552    0.015615346804
 N    0.179961540783    3.277919552182    0.025493555822
 C   -1.119963946374    2.969840163821    0.017038702664
 H   -1.930017475161    3.696420964923    0.021086840527
 H   -2.265326520312    1.152570481187   -0.005599687813
CS   -0.809832165593   -1.498625539480   -0.014227410020
