16

 N   -1.235811714088    1.766290531102    0.003818235113
 C   -0.003685981821    1.136000251094    0.004773195421
 N    0.266454954305   -0.184885223874    0.001309006474
 C    1.594584122768   -0.403079116624    0.016876435137
 H    1.908392405738   -1.449757849114    0.020256005828
 N    2.606933565809    0.504901840517    0.030847705412
 C    2.294716821902    1.815722923766    0.026201301512
 N    3.302343776704    2.740221561071   -0.015620535419
 H    4.233795314091    2.409691452319    0.206837398714
 H    3.069606270677    3.700192316110    0.209189710021
 C    0.929215981028    2.192416777633    0.017430213797
 N    0.305686669837    3.431382478263    0.027308422815
 C   -0.994238817320    3.123303089902    0.018853569657
 H   -1.804292346107    3.849883891004    0.022901707520
 H   -2.139601391258    1.306033407268   -0.003784820820
CS   -0.937590234098   -1.654569917272   -0.016071622894
