16

 N    1.310122149256    4.873914784244    0.040569291717
 C    2.542247881523    4.243624504236    0.041524252025
 N    2.812388817649    2.922739029268    0.038060063078
 C    4.140517986112    2.704545136518    0.053627491741
 H    4.454326269082    1.657866404028    0.057007062432
 N    5.152867429153    3.612526093659    0.067598762016
 C    4.840650685246    4.923347176908    0.062952358116
 N    5.848277640048    5.847845814213    0.021130521185
 H    6.779729177435    5.517315705461    0.243588455318
 H    5.615540134021    6.807816569252    0.245940766625
 C    3.475149844372    5.300041030775    0.054181270401
 N    2.851620533181    6.539006731405    0.064059479419
 C    1.551695046024    6.230927343044    0.055604626261
 H    0.741641517237    6.957508144146    0.059652764124
 H    0.406332472086    4.413657660410    0.032966235784
CS   -3.524691121313   -4.812443567561   -0.053416933594
