16

 N   -1.078655302770    1.958119188703    0.006086818854
 C    0.153470429497    1.327828908695    0.007041779162
 N    0.423611365623    0.006943433727    0.003577590215
 C    1.751740534086   -0.211250459023    0.019145018878
 H    2.065548817056   -1.257929191513    0.022524589569
 N    2.764089977127    0.696730498118    0.033116289153
 C    2.451873233220    2.007551581367    0.028469885253
 N    3.459500188022    2.932050218672   -0.013351951678
 H    4.390951725409    2.601520109920    0.209105982455
 H    3.226762681995    3.892020973711    0.211458293762
 C    1.086372392346    2.384245435234    0.019698797538
 N    0.462843081155    3.623211135864    0.029577006556
 C   -0.837082406002    3.315131747503    0.021122153398
 H   -1.647135934789    4.041712548605    0.025170291261
 H   -1.982444979940    1.497862064869   -0.001516237079
CS   -1.097287819728   -1.849500389512   -0.018376888987
