16

 N   -0.984361455980    2.073216383264    0.007447969098
 C    0.247764276287    1.442926103256    0.008402929406
 N    0.517905212413    0.122040628288    0.004938740459
 C    1.846034380876   -0.096153264462    0.020506169122
 H    2.159842663846   -1.142831996952    0.023885739813
 N    2.858383823917    0.811827692679    0.034477439397
 C    2.546167080010    2.122648775928    0.029831035497
 N    3.553794034812    3.047147413233   -0.011990801434
 H    4.485245572199    2.716617304481    0.210467132699
 H    3.321056528785    4.007118168272    0.212819444006
 C    1.180666239136    2.499342629795    0.021059947782
 N    0.557136927945    3.738308330425    0.030938156800
 C   -0.742788559212    3.430228942064    0.022483303642
 H   -1.552842087999    4.156809743166    0.026531441505
 H   -1.888151133150    1.612959259430   -0.000155086835
CS   -1.193106371107   -1.966458672856   -0.019760048642
