16

 N   -0.890067609189    2.188313577825    0.008809119343
 C    0.342058123078    1.558023297817    0.009764079651
 N    0.612199059204    0.237137822849    0.006299890704
 C    1.940328227667    0.018943930099    0.021867319367
 H    2.254136510637   -1.027734802391    0.025246890058
 N    2.952677670708    0.926924887240    0.035838589642
 C    2.640460926801    2.237745970489    0.031192185742
 N    3.648087881603    3.162244607794   -0.010629651189
 H    4.579539418990    2.831714499042    0.211828282944
 H    3.415350375576    4.122215362833    0.214180594251
 C    1.274960085927    2.614439824356    0.022421098027
 N    0.651430774736    3.853405524986    0.032299307045
 C   -0.648494712421    3.545326136625    0.023844453887
 H   -1.458548241208    4.271906937727    0.027892591750
 H   -1.793857286359    1.728056453991    0.001206063410
CS   -1.288924922485   -2.083416956200   -0.021143208298
