16

 N   -0.701479915608    2.418507966947    0.011531419832
 C    0.530645816659    1.788217686939    0.012486380140
 N    0.800786752785    0.467332211971    0.009022191193
 C    2.128915921248    0.249138319221    0.024589619856
 H    2.442724204218   -0.797540413269    0.027969190547
 N    3.141265364289    1.157119276362    0.038560890131
 C    2.829048620382    2.467940359611    0.033914486231
 N    3.836675575184    3.392438996916   -0.007907350700
 H    4.768127112571    3.061908888164    0.214550583433
 H    3.603938069157    4.352409751955    0.216902894740
 C    1.463547779508    2.844634213478    0.025143398516
 N    0.840018468317    4.083599914108    0.035021607534
 C   -0.459907018840    3.775520525747    0.026566754376
 H   -1.269960547627    4.502101326849    0.030614892239
 H   -1.605269592778    1.958250843113    0.003928363899
CS   -1.480562025242   -2.317333522888   -0.023909527609
