16

 N   -0.544323504291    2.610336624548    0.013800003573
 C    0.687802227976    1.980046344540    0.014754963881
 N    0.957943164102    0.659160869572    0.011290774934
 C    2.286072332565    0.440966976822    0.026858203597
 H    2.599880615535   -0.605711755668    0.030237774288
 N    3.298421775606    1.348947933963    0.040829473872
 C    2.986205031699    2.659769017212    0.036183069972
 N    3.993831986501    3.584267654517   -0.005638766959
 H    4.925283523888    3.253737545765    0.216819167174
 H    3.761094480474    4.544238409556    0.219171478481
 C    1.620704190825    3.036462871079    0.027411982257
 N    0.997174879634    4.275428571709    0.037290191275
 C   -0.302750607523    3.967349183348    0.028835338117
 H   -1.112804136310    4.693929984450    0.032883475980
 H   -1.448113181461    2.150079500714    0.006196947640
CS   -1.640259610872   -2.512263995128   -0.026214793701
