16

 N   -0.481460939764    2.687068087588    0.014707437069
 C    0.750664792503    2.056777807580    0.015662397377
 N    1.020805728629    0.735892332612    0.012198208430
 C    2.348934897092    0.517698439862    0.027765637093
 H    2.662743180062   -0.528980292628    0.031145207784
 N    3.361284340133    1.425679397003    0.041736907368
 C    3.049067596226    2.736500480252    0.037090503468
 N    4.056694551028    3.660999117557   -0.004731333463
 H    4.988146088415    3.330469008805    0.217726600670
 H    3.823957045001    4.620969872596    0.220078911977
 C    1.683566755352    3.113194334119    0.028319415753
 N    1.060037444161    4.352160034749    0.038197624771
 C   -0.239888042996    4.044080646388    0.029742771613
 H   -1.049941571783    4.770661447490    0.033790909476
 H   -1.385250616934    2.226810963754    0.007104381136
CS   -1.704138645124   -2.590236184024   -0.027136900138
