16

 N   -0.418598375237    2.763799550629    0.015614870566
 C    0.813527357030    2.133509270621    0.016569830874
 N    1.083668293156    0.812623795653    0.013105641927
 C    2.411797461619    0.594429902903    0.028673070590
 H    2.725605744589   -0.452248829587    0.032052641281
 N    3.424146904660    1.502410860044    0.042644340865
 C    3.111930160753    2.813231943293    0.037997936965
 N    4.119557115555    3.737730580598   -0.003823899966
 H    5.051008652942    3.407200471846    0.218634034167
 H    3.886819609528    4.697701335637    0.220986345474
 C    1.746429319879    3.189925797160    0.029226849250
 N    1.122900008688    4.428891497790    0.039105058268
 C   -0.177025478469    4.120812109429    0.030650205110
 H   -0.987079007256    4.847392910531    0.034698342973
 H   -1.322388052407    2.303542426795    0.008011814633
CS   -1.768017679377   -2.668208372920   -0.028059006575
