16

 N   -0.324304528446    2.878896745190    0.016976020810
 C    0.907821203821    2.248606465182    0.017930981118
 N    1.177962139947    0.927720990214    0.014466792171
 C    2.506091308410    0.709527097464    0.030034220834
 H    2.819899591380   -0.337151635026    0.033413791525
 N    3.518440751451    1.617508054605    0.044005491109
 C    3.206224007544    2.928329137854    0.039359087209
 N    4.213850962346    3.852827775159   -0.002462749722
 H    5.145302499733    3.522297666407    0.219995184411
 H    3.981113456319    4.812798530198    0.222347495718
 C    1.840723166670    3.305022991721    0.030587999494
 N    1.217193855479    4.543988692351    0.040466208512
 C   -0.082731631678    4.235909303990    0.032011355354
 H   -0.892785160465    4.962490105092    0.036059493217
 H   -1.228094205616    2.418639621356    0.009372964877
CS   -1.863836230755   -2.785166656264   -0.029442166231
