16

 N   -0.261441963919    2.955628208230    0.017883454307
 C    0.970683768348    2.325337928222    0.018838414615
 N    1.240824704474    1.004452453254    0.015374225668
 C    2.568953872937    0.786258560504    0.030941654331
 H    2.882762155907   -0.260420171986    0.034321225022
 N    3.581303315978    1.694239517645    0.044912924606
 C    3.269086572071    3.005060600894    0.040266520706
 N    4.276713526873    3.929559238199   -0.001555316225
 H    5.208165064260    3.599029129447    0.220902617908
 H    4.043976020846    4.889529993238    0.223254929215
 C    1.903585731197    3.381754454761    0.031495432991
 N    1.280056420006    4.620720155391    0.041373642009
 C   -0.019869067151    4.312640767030    0.032918788851
 H   -0.829922595938    5.039221568132    0.036966926714
 H   -1.165231641089    2.495371084396    0.010280398374
CS   -1.927715265007   -2.863138845160   -0.030364272668
