16

 N   -0.230010681656    2.993993939751    0.018337171055
 C    1.002115050611    2.363703659743    0.019292131363
 N    1.272255986737    1.042818184775    0.015827942416
 C    2.600385155200    0.824624292025    0.031395371079
 H    2.914193438170   -0.222054440465    0.034774941770
 N    3.612734598241    1.732605249166    0.045366641354
 C    3.300517854334    3.043426332415    0.040720237454
 N    4.308144809136    3.967924969720   -0.001101599477
 H    5.239596346523    3.637394860968    0.221356334656
 H    4.075407303109    4.927895724759    0.223708645963
 C    1.935017013460    3.420120186282    0.031949149739
 N    1.311487702269    4.659085886912    0.041827358757
 C    0.011562215112    4.351006498551    0.033372505599
 H   -0.798491313675    5.077587299653    0.037420643462
 H   -1.133800358826    2.533736815917    0.010734115122
CS   -1.959654782133   -2.902124939608   -0.030825325886
