16

 N   -0.135716834865    3.109091134311    0.019698321300
 C    1.096408897402    2.478800854303    0.020653281608
 N    1.366549833528    1.157915379335    0.017189092661
 C    2.694679001991    0.939721486585    0.032756521324
 H    3.008487284961   -0.106957245905    0.036136092015
 N    3.707028445032    1.847702443726    0.046727791599
 C    3.394811701125    3.158523526975    0.042081387699
 N    4.402438655927    4.083022164280    0.000259550768
 H    5.333890193314    3.752492055528    0.222717484901
 H    4.169701149900    5.042992919319    0.225069796208
 C    2.029310860251    3.535217380842    0.033310299984
 N    1.405781549060    4.774183081472    0.043188509002
 C    0.105856061903    4.466103693111    0.034733655844
 H   -0.704197466884    5.192684494213    0.038781793707
 H   -1.039506512035    2.648834010477    0.012095265367
CS   -2.055473333512   -3.019083222952   -0.032208485542
