16

 N    0.021439576452    3.300919791913    0.021966905041
 C    1.253565308719    2.670629511905    0.022921865349
 N    1.523706244845    1.349744036937    0.019457676402
 C    2.851835413308    1.131550144187    0.035025105065
 H    3.165643696278    0.084871411697    0.038404675756
 N    3.864184856349    2.039531101328    0.048996375340
 C    3.551968112442    3.350352184577    0.044349971440
 N    4.559595067244    4.274850821882    0.002528134509
 H    5.491046604631    3.944320713130    0.224986068642
 H    4.326857561217    5.234821576921    0.227338379949
 C    2.186467271568    3.727046038444    0.035578883725
 N    1.562937960377    4.966011739074    0.045457092743
 C    0.263012473220    4.657932350713    0.037002239585
 H   -0.547041055567    5.384513151815    0.041050377448
 H   -0.882350100718    2.840662668079    0.014363849108
CS   -2.215170919142   -3.214013695192   -0.034513751635
