16

 N    0.084302140979    3.377651254953    0.022874338537
 C    1.316427873246    2.747360974945    0.023829298845
 N    1.586568809372    1.426475499977    0.020365109898
 C    2.914697977835    1.208281607227    0.035932538561
 H    3.228506260805    0.161602874737    0.039312109252
 N    3.927047420876    2.116262564368    0.049903808836
 C    3.614830676969    3.427083647617    0.045257404936
 N    4.622457631771    4.351582284922    0.003435568005
 H    5.553909169158    4.021052176170    0.225893502138
 H    4.389720125744    5.311553039961    0.228245813445
 C    2.249329836095    3.803777501484    0.036486317221
 N    1.625800524904    5.042743202114    0.046364526239
 C    0.325875037747    4.734663813753    0.037909673081
 H   -0.484178491040    5.461244614855    0.041957810944
 H   -0.819487536191    2.917394131119    0.015271282604
CS   -2.279049953394   -3.291985884088   -0.035435858072
