16

 N    0.147164705506    3.454382717994    0.023781772033
 C    1.379290437773    2.824092437986    0.024736732341
 N    1.649431373899    1.503206963018    0.021272543394
 C    2.977560542362    1.285013070268    0.036839972057
 H    3.291368825332    0.238334337778    0.040219542748
 N    3.989909985403    2.192994027409    0.050811242332
 C    3.677693241496    3.503815110658    0.046164838432
 N    4.685320196298    4.428313747963    0.004343001501
 H    5.616771733685    4.097783639211    0.226800935634
 H    4.452582690271    5.388284503002    0.229153246941
 C    2.312192400622    3.880508964525    0.037393750717
 N    1.688663089431    5.119474665155    0.047271959735
 C    0.388737602274    4.811395276794    0.038817106577
 H   -0.421315926513    5.537976077896    0.042865244440
 H   -0.756624971664    2.994125594160    0.016178716100
CS   -2.342928987647   -3.369958072984   -0.036357964509
