16

 N    0.241458552297    3.569479912555    0.025142922278
 C    1.473584284564    2.939189632547    0.026097882586
 N    1.743725220690    1.618304157579    0.022633693639
 C    3.071854389153    1.400110264829    0.038201122302
 H    3.385662672123    0.353431532339    0.041580692993
 N    4.084203832194    2.308091221970    0.052172392577
 C    3.771987088287    3.618912305219    0.047525988677
 N    4.779614043089    4.543410942524    0.005704151746
 H    5.711065580476    4.212880833772    0.228162085879
 H    4.546876537062    5.503381697563    0.230514397186
 C    2.406486247413    3.995606159086    0.038754900962
 N    1.782956936222    5.234571859716    0.048633109980
 C    0.483031449065    4.926492471355    0.040178256822
 H   -0.327022079722    5.653073272457    0.044226394685
 H   -0.662331124873    3.109222788721    0.017539866345
CS   -2.438747539025   -3.486916356329   -0.037741124164
