16

 N    0.335752399087    3.684577107116    0.026504072523
 C    1.567878131354    3.054286827108    0.027459032831
 N    1.838019067480    1.733401352140    0.023994843884
 C    3.166148235943    1.515207459390    0.039562272547
 H    3.479956518913    0.468528726900    0.042941843238
 N    4.178497678984    2.423188416531    0.053533542822
 C    3.866280935077    3.734009499780    0.048887138922
 N    4.873907889879    4.658508137085    0.007065301991
 H    5.805359427266    4.327978028333    0.229523236124
 H    4.641170383852    5.618478892124    0.231875547431
 C    2.500780094203    4.110703353647    0.040116051207
 N    1.877250783012    5.349669054277    0.049994260225
 C    0.577325295855    5.041589665916    0.041539407067
 H   -0.232728232932    5.768170467018    0.045587544930
 H   -0.568037278083    3.224319983282    0.018901016590
CS   -2.534566090403   -3.603874639673   -0.039124283820
