16

 N    0.367183681351    3.722942838636    0.026957789271
 C    1.599309413618    3.092652558628    0.027912749579
 N    1.869450349744    1.771767083660    0.024448560632
 C    3.197579518207    1.553573190910    0.040015989295
 H    3.511387801177    0.506894458420    0.043395559986
 N    4.209928961248    2.461554148051    0.053987259570
 C    3.897712217341    3.772375231300    0.049340855670
 N    4.905339172143    4.696873868605    0.007519018739
 H    5.836790709530    4.366343759853    0.229976952872
 H    4.672601666116    5.656844623644    0.232329264179
 C    2.532211376467    4.149069085167    0.040569767955
 N    1.908682065276    5.388034785797    0.050447976973
 C    0.608756578119    5.079955397436    0.041993123815
 H   -0.201296950668    5.806536198538    0.046041261678
 H   -0.536605995819    3.262685714802    0.019354733338
CS   -2.566505607529   -3.642860734121   -0.039585337038
