16

 N    0.461477528141    3.838040033197    0.028318939515
 C    1.693603260408    3.207749753189    0.029273899823
 N    1.963744196534    1.886864278221    0.025809710876
 C    3.291873364997    1.668670385471    0.041377139539
 H    3.605681647967    0.621991652981    0.044756710230
 N    4.304222808038    2.576651342612    0.055348409814
 C    3.992006064131    3.887472425861    0.050702005914
 N    4.999633018933    4.811971063166    0.008880168983
 H    5.931084556320    4.481440954414    0.231338103116
 H    4.766895512906    5.771941818205    0.233690414423
 C    2.626505223257    4.264166279728    0.041930918199
 N    2.002975912066    5.503131980358    0.051809127217
 C    0.703050424909    5.195052591997    0.043354274059
 H   -0.107003103878    5.921633393099    0.047402411922
 H   -0.442312149029    3.377782909363    0.020715883582
CS   -2.662324158908   -3.759819017465   -0.040968496694
