16

 N    0.524340092668    3.914771496237    0.029226373012
 C    1.756465824935    3.284481216229    0.030181333320
 N    2.026606761061    1.963595741261    0.026717144373
 C    3.354735929524    1.745401848511    0.042284573036
 H    3.668544212494    0.698723116021    0.045664143727
 N    4.367085372565    2.653382805652    0.056255843311
 C    4.054868628658    3.964203888901    0.051609439411
 N    5.062495583460    4.888702526206    0.009787602480
 H    5.993947120847    4.558172417454    0.232245536613
 H    4.829758077433    5.848673281245    0.234597847920
 C    2.689367787784    4.340897742768    0.042838351696
 N    2.065838476593    5.579863443398    0.052716560714
 C    0.765912989436    5.271784055037    0.044261707556
 H   -0.044140539351    5.998364856139    0.048309845419
 H   -0.379449584502    3.454514372403    0.021623317079
CS   -2.726203193160   -3.837791206361   -0.041890603131
