16

 N    0.555771374932    3.953137227757    0.029680089760
 C    1.787897107199    3.322846947749    0.030635050068
 N    2.058038043325    2.001961472781    0.027170861121
 C    3.386167211788    1.783767580031    0.042738289784
 H    3.699975494758    0.737088847541    0.046117860475
 N    4.398516654829    2.691748537172    0.056709560059
 C    4.086299910922    4.002569620421    0.052063156159
 N    5.093926865724    4.927068257726    0.010241319228
 H    6.025378403111    4.596538148974    0.232699253361
 H    4.861189359697    5.887039012765    0.235051564668
 C    2.720799070048    4.379263474288    0.043292068444
 N    2.097269758857    5.618229174918    0.053170277462
 C    0.797344271700    5.310149786557    0.044715424304
 H   -0.012709257087    6.036730587659    0.048763562167
 H   -0.348018302238    3.492880103923    0.022077033827
CS   -2.758142710286   -3.876777300809   -0.042351656349
