16

 N    0.744359068513    4.183331616879    0.032402390249
 C    1.976484800780    3.553041336871    0.033357350557
 N    2.246625736906    2.232155861903    0.029893161610
 C    3.574754905369    2.013961969153    0.045460590273
 H    3.888563188339    0.967283236663    0.048840160964
 N    4.587104348410    2.921942926294    0.059431860548
 C    4.274887604503    4.232764009543    0.054785456648
 N    5.282514559305    5.157262646848    0.012963619717
 H    6.213966096692    4.826732538096    0.235421553850
 H    5.049777053278    6.117233401887    0.237773865157
 C    2.909386763629    4.609457863410    0.046014368933
 N    2.285857452438    5.848423564040    0.055892577951
 C    0.985931965281    5.540344175679    0.047437724793
 H    0.175878436494    6.266924976781    0.051485862656
 H   -0.159430608657    3.723074493045    0.024799334316
CS   -2.949779813043   -4.110693867497   -0.045117975660
