16

 N    0.901515479831    4.375160274480    0.034670973990
 C    2.133641212098    3.744869994472    0.035625934298
 N    2.403782148224    2.423984519504    0.032161745351
 C    3.731911316687    2.205790626754    0.047729174014
 H    4.045719599657    1.159111894264    0.051108744705
 N    4.744260759728    3.113771583895    0.061700444289
 C    4.432044015821    4.424592667144    0.057054040389
 N    5.439670970623    5.349091304449    0.015232203458
 H    6.371122508010    5.018561195697    0.237690137591
 H    5.206933464596    6.309062059488    0.240042448898
 C    3.066543174947    4.801286521011    0.048282952674
 N    2.443013863756    6.040252221641    0.058161161692
 C    1.143088376599    5.732172833280    0.049706308534
 H    0.333034847812    6.458753634382    0.053754446397
 H   -0.002274197339    3.914903150646    0.027067918057
CS   -3.109477398673   -4.305624339737   -0.047423241753
