16

 N    0.964378044358    4.451891737521    0.035578407487
 C    2.196503776625    3.821601457513    0.036533367795
 N    2.466644712751    2.500715982545    0.033069178848
 C    3.794773881214    2.282522089795    0.048636607511
 H    4.108582164184    1.235843357305    0.052016178202
 N    4.807123324255    3.190503046936    0.062607877786
 C    4.494906580348    4.501324130185    0.057961473886
 N    5.502533535150    5.425822767490    0.016139636955
 H    6.433985072537    5.095292658738    0.238597571088
 H    5.269796029123    6.385793522529    0.240949882395
 C    3.129405739474    4.878017984052    0.049190386171
 N    2.505876428283    6.116983684682    0.059068595189
 C    1.205950941126    5.808904296321    0.050613742031
 H    0.395897412339    6.535485097423    0.054661879894
 H    0.060588367188    3.991634613687    0.027975351554
CS   -3.173356432925   -4.383596528633   -0.048345348190
