16

 N    1.121534455675    4.643720395122    0.037846991228
 C    2.353660187942    4.013430115114    0.038801951536
 N    2.623801124068    2.692544640146    0.035337762589
 C    3.951930292531    2.474350747396    0.050905191252
 H    4.265738575501    1.427672014906    0.054284761943
 N    4.964279735572    3.382331704537    0.064876461527
 C    4.652062991665    4.693152787786    0.060230057627
 N    5.659689946467    5.617651425091    0.018408220696
 H    6.591141483854    5.287121316339    0.240866154829
 H    5.426952440440    6.577622180130    0.243218466136
 C    3.286562150791    5.069846641653    0.051458969912
 N    2.663032839600    6.308812342283    0.061337178930
 C    1.363107352443    6.000732953922    0.052882325772
 H    0.553053823656    6.727313755024    0.056930463635
 H    0.217744778505    4.183463271288    0.030243935295
CS   -3.333054018556   -4.578527000873   -0.050650614282
