25

 N    2.933667302097    3.211914736708    0.119327522543
 C    4.091927302097    3.916404736708   -0.192672477457
 H    3.950217302097    4.981274736708   -0.378742477457
 C    2.923927302097    1.871644736708    0.431127522543
 O    1.872397302097    1.267324736708    0.752517522543
 N    4.153407302097    1.273264736708    0.363757522543
 H    4.208537302097    0.301334736708    0.662267522543
 C    5.411077302097    1.871484736708    0.027797522543
 O    6.421007302097    1.180894736708    0.029387522543
 C    5.302167302097    3.298294736708   -0.265612477457
 H    6.204697302097    3.842604736708   -0.537532477457
 H    2.075557302097    3.721094736708    0.298297522543
RB   -0.391542697903   -0.261635263292   -0.145292477457
 O   -1.572473013582   -1.059180788112   -0.613613655015
 C   -2.624008366523   -1.663504981857   -0.292229814772
 N   -2.617895199068   -2.974077256943    0.127310589670
 H   -1.740792863482   -3.472926615555    0.029897432342
 C   -3.773263725114   -3.681814199990    0.442662524611
 H   -3.616233385056   -4.724062403178    0.721419081041
 C   -4.999450801238   -3.092370335492    0.409538318194
 H   -5.901204343992   -3.636899316146    0.683574225074
 C   -5.126907220163   -1.697250063146   -0.004171283536
 O   -6.151160492355   -1.036251437181   -0.108288633085
 N   -3.868686674646   -1.094687919768   -0.330161589897
 H   -3.931774235247   -0.151791122878   -0.709315810515
