25

 N    2.990600222843    3.249780286946    0.140147064595
 C    4.148860222843    3.954270286946   -0.171852935405
 H    4.007150222843    5.019140286946   -0.357922935405
 C    2.980860222843    1.909510286946    0.451947064595
 O    1.929330222843    1.305190286946    0.773337064595
 N    4.210340222843    1.311130286946    0.384577064595
 H    4.265470222843    0.339200286946    0.683087064595
 C    5.468010222843    1.909350286946    0.048617064595
 O    6.477940222843    1.218760286946    0.050207064595
 C    5.359100222843    3.336160286946   -0.244792935405
 H    6.261630222843    3.880470286946   -0.516712935405
 H    2.132490222843    3.758960286946    0.319117064595
RB   -0.334609777157   -0.223769713054   -0.124472935405
 O   -1.672997468260   -1.127654641184   -0.655236936637
 C   -2.724532821201   -1.731978834929   -0.333853096395
 N   -2.720794967088   -3.048449366685    0.066824551426
 H   -1.846743921000   -3.549634503377   -0.044964269535
 C   -3.876667431758   -3.755639577427    0.381555715517
 H   -3.721982970053   -4.802448396531    0.644061098418
 C   -5.100456790888   -3.160489203350    0.367007010540
 H   -6.002339871697   -3.704992713985    0.640666975379
 C   -5.225109539814   -1.759039581439   -0.025627675944
 O   -6.247238678668   -1.092196379232   -0.111805044069
 N   -3.966943593290   -1.157304088779   -0.353351043306
 H   -4.028953903794   -0.208801021347   -0.718438683967
