25

 N    5.355103400203    4.842679874103    1.050394019102
 C    6.513363400203    5.547169874103    0.738394019102
 H    6.371653400203    6.612039874103    0.552324019102
 C    5.345363400203    3.502409874103    1.362194019102
 O    4.293833400203    2.898089874103    1.683584019102
 N    6.574843400203    2.904029874103    1.294824019102
 H    6.629973400203    1.932099874103    1.593334019102
 C    7.832513400203    3.502249874103    0.958864019102
 O    8.842443400203    2.811659874103    0.960454019102
 C    7.723603400203    4.929059874103    0.665454019102
 H    8.626133400203    5.473369874103    0.393534019102
 H    4.496993400203    5.351859874103    1.229364019102
RB    2.029893400203    1.369129874103    0.785774019102
 O   -5.842975370993   -3.947840291364   -2.336367164616
 C   -6.894510723934   -4.552164485109   -2.014983324374
 N   -6.951207466337   -5.923466463051   -1.915145582538
 H   -6.141217677419   -6.432260618177   -2.250844201033
 C   -8.115245246295   -6.620735048602   -1.608474063103
 H   -8.016971822069   -7.706537114337   -1.603862053046
 C   -9.278670604271   -5.973201505742   -1.327017538239
 H  -10.182950567885   -6.516534024931   -1.058998020480
 C   -9.333628285906   -4.514615333162   -1.384178521323
 O  -10.300237392281   -3.791905602608   -1.183649589655
 N   -8.078641079198   -3.922424405958   -1.740249826500
 H   -8.105652313320   -2.913915427028   -1.877990036852
