25

 N    3.104452735293    3.325718228948    0.182131478382
 C    4.262712735293    4.030208228948   -0.129868521618
 H    4.121002735293    5.095078228948   -0.315938521618
 C    3.094712735293    1.985448228948    0.493931478382
 O    2.043182735293    1.381128228948    0.815321478382
 N    4.324192735293    1.387068228948    0.426561478382
 H    4.379322735293    0.415138228948    0.725071478382
 C    5.581862735293    1.985288228948    0.090601478382
 O    6.591792735293    1.294698228948    0.092191478382
 C    5.472952735293    3.412098228948   -0.202808521618
 H    6.375482735293    3.956408228948   -0.474728521618
 H    2.246342735293    3.834898228948    0.361101478382
RB   -0.220757264707   -0.147831771052   -0.082488521618
 O   -1.874059706658   -1.264395505800   -0.738138170199
 C   -2.925595059599   -1.868719699545   -0.416754329956
 N   -2.926585353995   -3.195091689476   -0.050165222584
 H   -2.058345904187   -3.699925521052   -0.187829935544
 C   -4.083371003386   -3.901270641771    0.263479645217
 H   -3.933292857731   -4.955669685365    0.496641111940
 C   -5.302399990302   -3.296553554411    0.282495465321
 H   -6.204523561036   -3.840996266418    0.555482896113
 C   -5.421503566860   -1.884511672453   -0.072065402862
 O   -6.439376032277   -1.207827498781   -0.125810587267
 N   -4.163480862714   -1.284199803895   -0.402934401043
 H   -4.223200270963   -0.326133086680   -0.742543132590
