25

 N    3.132914561897    3.344739507077    0.192692507601
 C    4.291174561897    4.049229507077   -0.119307492399
 H    4.149464561897    5.114099507077   -0.305377492399
 C    3.123174561897    2.004469507077    0.504492507601
 O    2.071644561897    1.400149507077    0.825882507601
 N    4.352654561897    1.406089507077    0.437122507601
 H    4.407784561897    0.434159507077    0.735632507601
 C    5.610324561897    2.004309507077    0.101162507601
 O    6.620254561897    1.313719507077    0.102752507601
 C    5.501414561897    3.431119507077   -0.192247492399
 H    6.403944561897    3.975429507077   -0.464167492399
 H    2.274804561897    3.853919507077    0.371662507601
RB   -0.192295438103   -0.128810492923   -0.071927492399
 O   -1.924326567766   -1.298543929325   -0.758798552817
 C   -2.975861920707   -1.902868123071   -0.437414712574
 N   -2.978018178221   -3.231380696343   -0.078665631445
 H   -2.111168957931   -3.736950453593   -0.222262855432
 C   -4.135014297012   -3.937322883656    0.234735810279
 H   -3.986061716738   -4.993350088945    0.461152976191
 C   -5.352871399906   -3.330540077019    0.261470256230
 H   -6.255051433309   -3.874966142554    0.534304248602
 C   -5.470611727974   -1.916214650772   -0.084336266868
 O   -6.487429828877   -1.237397218743   -0.130620338117
 N   -4.212630005784   -1.316217526443   -0.415931193048
 H   -4.271760475987   -0.356053680034   -0.749669576279
