25

 N    3.218299874741    3.401877435367    0.224514373746
 C    4.376559874741    4.106367435367   -0.087485626254
 H    4.234849874741    5.171237435367   -0.273555626254
 C    3.208559874741    2.061607435367    0.536314373746
 O    2.157029874741    1.457287435367    0.857704373746
 N    4.438039874741    1.463227435367    0.468944373746
 H    4.493169874741    0.491297435367    0.767454373746
 C    5.695709874741    2.061447435367    0.132984373746
 O    6.705639874741    1.370857435367    0.134574373746
 C    5.586799874741    3.488257435367   -0.160425626254
 H    6.489329874741    4.032567435367   -0.432345626254
 H    2.360189874741    3.911057435367    0.403484373746
RB   -0.106910125259   -0.071672564633   -0.040105626254
 O   -2.075127318058   -1.400915106000   -0.820640922183
 C   -3.126662670999   -2.005239299745   -0.499257081940
 N   -3.132256737764   -3.339504728738   -0.162573727123
 H   -2.269426965359   -3.846940402822   -0.322830812517
 C   -4.289846108987   -4.044772216624    0.150155345020
 H   -4.144193019498   -5.105148137109    0.357599668343
 C   -5.504251702378   -3.432443034325    0.198612081853
 H   -6.406592941872   -3.976816950864    0.471016684240
 C   -5.617982138952   -2.011994047931   -0.122559854107
 O   -6.631682817797   -1.327431275863   -0.147840605819
 N   -4.360131747414   -1.412857558792   -0.456202803265
 H   -4.417481227799   -0.446995056941   -0.773398322652
