25

 N    3.332151256692    3.478207827744    0.267233045040
 C    4.490411256692    4.182697827744   -0.044766954960
 H    4.348701256692    5.247567827744   -0.230836954960
 C    3.322411256692    2.137937827744    0.579033045040
 O    2.270881256692    1.533617827744    0.900423045040
 N    4.551891256692    1.539557827744    0.511663045040
 H    4.607021256692    0.567627827744    0.810173045040
 C    5.809561256692    2.137777827744    0.175703045040
 O    6.819491256692    1.447187827744    0.177293045040
 C    5.700651256692    3.564587827744   -0.117706954960
 H    6.603181256692    4.108897827744   -0.389626954960
 H    2.474041256692    3.987387827744    0.446203045040
RB    0.006941256692    0.004657827744    0.002613045040
 O   -2.276190686955   -1.537263520241   -0.902807898238
 C   -3.327726039896   -2.141587713987   -0.581424057995
 N   -3.337732810175   -3.482211162745   -0.271134123922
 H   -2.479916074098   -3.991483502699   -0.451246988437
 C   -4.496033494141   -4.186655601231    0.040815251797
 H   -4.354580279037   -5.251783277757    0.225582898140
 C   -5.706015701566   -3.568207244902    0.115251240197
 H   -6.608554175522   -4.112508588790    0.387146975678
 C   -5.814616772930   -2.141017759962   -0.176463224603
 O   -6.824300084433   -1.450080744398   -0.176613548656
 N   -4.556954238684   -1.542862177880   -0.512565303164
 H   -4.611935880319   -0.570575417498   -0.809933437921
