25

 N    3.446012510648    3.554672256121    0.310236055334
 C    4.604272510648    4.259162256121   -0.001763944666
 H    4.462562510648    5.324032256121   -0.187833944666
 C    3.436272510648    2.214402256121    0.622036055334
 O    2.384742510648    1.610082256121    0.943426055334
 N    4.665752510648    1.616022256121    0.554666055334
 H    4.720882510648    0.644092256121    0.853176055334
 C    5.923422510648    2.214242256121    0.218706055334
 O    6.933352510648    1.523652256121    0.220296055334
 C    5.814512510648    3.641052256121   -0.074703944666
 H    6.717042510648    4.185362256121   -0.346623944666
 H    2.587902510648    4.063852256121    0.489206055334
RB    0.120802510648    0.081122256121    0.045616055334
 O   -2.477244183846   -1.673477898483   -0.984690535293
 C   -3.528779536787   -2.277802092228   -0.663306695050
 N   -3.542975444847   -3.623595487494   -0.376444666447
 H   -2.689794358594   -4.134140264004   -0.574117573388
 C   -4.701909065703   -4.327294843979   -0.065165157751
 H   -4.564413166926   -5.396233024288    0.099489350226
 C   -5.907697818900   -3.703881188169    0.032328044638
 H   -6.810415361017   -4.248108881135    0.303776379065
 C   -6.011444294584   -2.271237426094   -0.233246553867
 O   -7.017300353009   -1.575093232152   -0.211083012402
 N   -4.753976372043   -1.673908600786   -0.571540000256
 H   -4.806641118937   -0.696274413193   -0.851272287601
