25

 N    3.474479772604    3.573805874305    0.321026110621
 C    4.632739772604    4.278295874305    0.009026110621
 H    4.491029772604    5.343165874305   -0.177043889379
 C    3.464739772604    2.233535874305    0.632826110621
 O    2.413209772604    1.629215874305    0.954216110621
 N    4.694219772604    1.635155874305    0.565456110621
 H    4.749349772604    0.663225874305    0.863966110621
 C    5.951889772604    2.233375874305    0.229496110621
 O    6.961819772604    1.542785874305    0.231086110621
 C    5.842979772604    3.660185874305   -0.063913889379
 H    6.745509772604    4.204495874305   -0.335833889379
 H    2.616369772604    4.082985874305    0.499996110621
RB    0.149269772604    0.100255874305    0.056406110621
 O   -2.527505609603   -1.707513981954   -1.005121891843
 C   -3.579040962544   -2.311838175699   -0.683738051600
 N   -3.594247509167   -3.658770263844   -0.402323906853
 H   -2.742169311595   -4.169562945001   -0.604071509067
 C   -4.753328519340   -4.362294414802   -0.091197187852
 H   -4.616783598661   -5.432064061559    0.068782342131
 C   -5.958106322901   -3.737788667152    0.011657288463
 H   -6.860866040841   -4.281997995506    0.283002160346
 C   -6.060683484284   -2.303947492582   -0.247839839981
 O   -7.065614526826   -1.606652886555   -0.220486526815
 N   -4.803264552335   -1.706805028345   -0.586644008512
 H   -4.855361689957   -0.727974962632   -0.862270428884
