25

 N    3.588357557114    3.650399451763    0.364326056743
 C    4.746617557114    4.354889451763    0.052326056743
 H    4.604907557114    5.419759451763   -0.133743943257
 C    3.578617557114    2.310129451763    0.676126056743
 O    2.527087557114    1.705809451763    0.997516056743
 N    4.808097557114    1.711749451763    0.608756056743
 H    4.863227557114    0.739819451763    0.907266056743
 C    6.065767557114    2.309969451763    0.272796056743
 O    7.075697557114    1.619379451763    0.274386056743
 C    5.956857557114    3.736779451763   -0.020613943257
 H    6.859387557114    4.281089451763   -0.292533943257
 H    2.730247557114    4.159579451763    0.543296056743
RB    0.263147557114    0.176849451763    0.099706056743
 O   -2.728542575940   -1.843599211114   -1.086707593070
 C   -3.780077928881   -2.447923404860   -0.765323752827
 N   -3.799178949262   -3.798895830440   -0.504249306851
 H   -2.951301174533   -4.310454677381   -0.721180950777
 C   -4.958810926638   -4.501759388749   -0.193683130572
 H   -4.825918627724   -5.574451890335   -0.051150690646
 C   -6.159695395788   -3.873384009738   -0.070813675838
 H   -7.062614356482   -4.417520661769    0.200146829102
 C   -6.257772608636   -2.435307841206   -0.307624024891
 O   -7.259133734943   -1.733918975472   -0.260891537843
 N   -5.000548992437   -1.838841587846   -0.648338781114
 H   -5.050431155361   -0.855704823216   -0.908619792246
