25

 N    3.616829282048    3.669561084439    0.375183392369
 C    4.775089282048    4.374051084439    0.063183392369
 H    4.633379282048    5.438921084439   -0.122886607631
 C    3.607089282048    2.329291084439    0.686983392369
 O    2.555559282048    1.724971084439    1.008373392369
 N    4.836569282048    1.730911084439    0.619613392369
 H    4.891699282048    0.758981084439    0.918123392369
 C    6.094239282048    2.329131084439    0.283653392369
 O    7.104169282048    1.638541084439    0.285243392369
 C    5.985329282048    3.755941084439   -0.009756607631
 H    6.887859282048    4.300251084439   -0.281676607631
 H    2.758719282048    4.178741084439    0.554153392369
RB    0.291619282048    0.196011084439    0.110563392369
 O   -2.778799538719   -1.877607280093   -1.107071669281
 C   -3.830334891660   -2.481931473839   -0.785687829038
 N   -3.850372727926   -3.833799455372   -0.529362536445
 H   -3.003494484972   -4.345501061745   -0.749832989217
 C   -5.010133507732   -4.536507305720   -0.218924998311
 H   -4.878117222035   -5.609841139053   -0.080464733133
 C   -6.210081948616   -3.907275485834   -0.091382518468
 H   -7.113038494529   -4.451394236333    0.179488673152
 C   -6.307078011799   -2.468263881574   -0.322896479454
 O   -7.307579211176   -1.765964564207   -0.271638402331
 N   -5.049902813457   -1.871951081519   -0.664058204739
 H   -5.099246078824   -0.887844584015   -0.920752530027
