25

 N    3.816157772144    3.803812761400    0.451497283332
 C    4.974417772144    4.508302761400    0.139497283332
 H    4.832707772144    5.573172761400   -0.046572716668
 C    3.806417772144    2.463542761400    0.763297283332
 O    2.754887772144    1.859222761400    1.084687283332
 N    5.035897772144    1.865162761400    0.695927283332
 H    5.091027772144    0.893232761400    0.994437283332
 C    6.293567772144    2.463382761400    0.359967283332
 O    7.303497772144    1.772792761400    0.361557283332
 C    6.184657772144    3.890192761400    0.066557283332
 H    7.087187772144    4.434502761400   -0.205362716668
 H    2.958047772144    4.312992761400    0.630467283332
RB    0.490947772144    0.330262761400    0.186877283332
 O   -3.130571862606   -2.115543514714   -1.249307661178
 C   -4.182107215547   -2.719867708460   -0.927923820935
 N   -4.208303925926   -4.076976617010   -0.701604681887
 H   -3.367904708355   -4.589264885861   -0.944376998271
 C   -5.368879868807   -4.778687887531   -0.391960324554
 H   -5.242600488346   -5.855714862863   -0.279215147373
 C   -6.562678963559   -4.144455790750   -0.234895379762
 H   -7.465876500537   -4.688453300744    0.035415291906
 C   -6.652578387838   -2.699999905126   -0.432952532118
 O   -7.647416177661   -1.992345429840   -0.353094613604
 N   -5.395733653230   -2.104617941339   -0.776945828445
 H   -5.441482519623   -1.114697276255   -1.010946792039
