25

 N    3.987047232287    3.919018593448    0.517278538486
 C    5.145307232287    4.623508593448    0.205278538486
 H    5.003597232287    5.688378593448    0.019208538486
 C    3.977307232287    2.578748593448    0.829078538486
 O    2.925777232287    1.974428593448    1.150468538486
 N    5.206787232287    1.980368593448    0.761708538486
 H    5.261917232287    1.008438593448    1.060218538486
 C    6.464457232287    2.578588593448    0.425748538486
 O    7.474387232287    1.887998593448    0.427338538486
 C    6.355547232287    4.005398593448    0.132338538486
 H    7.258077232287    4.549708593448   -0.139581461514
 H    3.128937232287    4.428198593448    0.696248538486
RB    0.661837232287    0.445468593448    0.252658538486
 O   -3.432054528735   -2.319355892594   -1.370854877047
 C   -4.483589881676   -2.923680086340   -1.049471036804
 N   -4.514542639214   -4.284160199494   -0.845052352451
 H   -3.679050365195   -4.796533694333   -1.104039948180
 C   -5.675715022978   -4.985130196291   -0.535965611918
 H   -5.553842590924   -6.064462282179   -0.441974010283
 C   -6.864769975288   -4.347695481333   -0.357356170242
 H   -7.768147231523   -4.891595654236   -0.087450490914
 C   -6.949200812554   -2.899772845181   -0.531001846942
 O   -7.939654688596   -2.188641912083   -0.430263140258
 N   -5.692623973177   -2.305028159361   -0.877069994945
 H   -5.735543269767   -1.311204160398   -1.094473136520
