25

 N    4.072504068547    3.976656931791    0.550275383754
 C    5.230764068547    4.681146931791    0.238275383754
 H    5.089054068547    5.746016931791    0.052205383754
 C    4.062764068547    2.636386931791    0.862075383754
 O    3.011234068547    2.032066931791    1.183465383754
 N    5.292244068547    2.038006931791    0.794705383754
 H    5.347374068547    1.066076931791    1.093215383754
 C    6.549914068547    2.636226931791    0.458745383754
 O    7.559844068547    1.945636931791    0.460335383754
 C    6.441004068547    4.063036931791    0.165335383754
 H    7.343534068547    4.607346931791   -0.106584616246
 H    3.214394068547    4.485836931791    0.729245383754
RB    0.747294068547    0.503106931791    0.285655383754
 O   -3.582783755611   -2.421226659215   -1.431522267291
 C   -4.634319108552   -3.025550852961   -1.110138427048
 N   -4.667483568149   -4.387423087834   -0.915573927455
 H   -3.834248144665   -4.899740675342   -1.181840582295
 C   -5.828924729701   -5.088055724600   -0.606732235076
 H   -5.709095621029   -6.168317713378   -0.521174752551
 C   -7.015774697082   -4.449302804831   -0.418429578389
 H   -7.919233870717   -4.993156748932   -0.148704996710
 C   -7.097665500459   -2.999959587444   -0.581093287113
 O   -8.086078005840   -2.287383160316   -0.470957342440
 N   -5.841216539721   -2.405490074727   -0.928097271447
 H   -5.882806007778   -1.410003261363   -1.138022623576
