25

 N    4.100991404620    3.995874197091    0.561288407998
 C    5.259251404620    4.700364197091    0.249288407998
 H    5.117541404620    5.765234197091    0.063218407998
 C    4.091251404620    2.655604197091    0.873088407998
 O    3.039721404620    2.051284197091    1.194478407998
 N    5.320731404620    2.057224197091    0.805718407998
 H    5.375861404620    1.085294197091    1.104228407998
 C    6.578401404620    2.655444197091    0.469758407998
 O    7.588331404620    1.964854197091    0.471348407998
 C    6.469491404620    4.082254197091    0.176348407998
 H    7.372021404620    4.626564197091   -0.095571592002
 H    3.242881404620    4.505054197091    0.740258407998
RB    0.775781404620    0.522324197091    0.296668407998
 O   -3.633025107250   -2.455179095570   -1.451730654884
 C   -4.684560460191   -3.059503289315   -1.130346814641
 N   -4.718438935788   -4.421802810565   -0.938921964386
 H   -3.885928948695   -4.934090302510   -1.207505582439
 C   -5.879965785896   -5.122327462810   -0.630157584194
 H   -5.760795573337   -6.202871747182   -0.547286766352
 C   -7.066104054729   -4.483170554688   -0.438766669808
 H   -7.969589465234   -5.027009452914   -0.169099640527
 C   -7.147175225746   -3.033392877121   -0.597931673676
 O   -8.134928360986   -2.320371375002   -0.484801426002
 N   -5.890767964807   -2.439009529466   -0.945234118711
 H   -5.931926352304   -1.443005110557   -1.152775723098
