25

 N    4.157968593093    4.034314878174    0.583334254909
 C    5.316228593093    4.738804878174    0.271334254909
 H    5.174518593093    5.803674878174    0.085264254909
 C    4.148228593093    2.694044878174    0.895134254909
 O    3.096698593093    2.089724878174    1.216524254909
 N    5.377708593093    2.095664878174    0.827764254909
 H    5.432838593093    1.123734878174    1.126274254909
 C    6.635378593093    2.693884878174    0.491804254909
 O    7.645308593093    2.003294878174    0.493394254909
 C    6.526468593093    4.120694878174    0.198394254909
 H    7.428998593093    4.665004878174   -0.073525745091
 H    3.299858593093    4.543494878174    0.762304254909
RB    0.832758593093    0.560764878174    0.318714254909
 O   -3.733505294200   -2.523077817797   -1.492127631648
 C   -4.785040647141   -3.127402011542   -1.170743791405
 N   -4.820313597822   -4.490506041764   -0.985394305996
 H   -3.989216117108   -5.002718443115   -1.258458302808
 C   -5.982006332007   -5.190821055707   -0.676778481728
 H   -5.864121914322   -6.271892409869   -0.599105746628
 C   -7.166754853423   -4.550904374603   -0.479411791665
 H   -8.070291221603   -5.094713723557   -0.209855926833
 C   -7.246225796044   -3.100310904923   -0.631807010099
 O   -8.232690714983   -2.386449396783   -0.512882317550
 N   -5.989900538320   -2.506092221289   -0.979687392499
 H   -6.030214634629   -1.509102932029   -1.182614629806
