25

 N    4.271932696653    4.111218482535    0.627499597033
 C    5.430192696653    4.815708482535    0.315499597033
 H    5.288482696653    5.880578482535    0.129429597033
 C    4.262192696653    2.770948482535    0.939299597033
 O    3.210662696653    2.166628482535    1.260689597033
 N    5.491672696653    2.172568482535    0.871929597033
 H    5.546802696653    1.200638482535    1.170439597033
 C    6.749342696653    2.770788482535    0.535969597033
 O    7.759272696653    2.080198482535    0.537559597033
 C    6.640432696653    4.197598482535    0.242559597033
 H    7.542962696653    4.741908482535   -0.029360402967
 H    3.413822696653    4.620398482535    0.806469597033
RB    0.946722696653    0.637668482535    0.362879597033
 O   -3.934455941488   -2.658853020054   -1.572847936872
 C   -4.985991294429   -3.263177213799   -1.251464096629
 N   -5.023924765483   -4.627710567297   -1.077507237131
 H   -4.195507158119   -5.139722244587   -1.358962070150
 C   -6.185928827080   -5.327630034939   -0.769166266699
 H   -6.070493947700   -6.409621560967   -0.701238446727
 C   -7.368026558359   -4.686366687636   -0.560594213897
 H   -8.271659151991   -5.230119079635   -0.291246088193
 C   -7.444446240037   -3.234331973378   -0.700295926281
 O   -8.428451733046   -2.518970754987   -0.570504214102
 N   -6.188279420656   -2.640414714572   -1.049261496522
 H   -6.226974276128   -1.641638015499   -1.243529729765
