25

 N    4.442901691632    4.226620933574    0.693910800800
 C    5.601161691632    4.931110933574    0.381910800800
 H    5.459451691632    5.995980933574    0.195840800800
 C    4.433161691632    2.886350933574    1.005710800800
 O    3.381631691632    2.282030933574    1.327100800800
 N    5.662641691632    2.287970933574    0.938340800800
 H    5.717771691632    1.316040933574    1.236850800800
 C    6.920311691632    2.886190933574    0.602380800800
 O    7.930241691632    2.195600933574    0.603970800800
 C    6.811401691632    4.313000933574    0.308970800800
 H    7.713931691632    4.857310933574    0.037050800800
 H    3.584791691632    4.735800933574    0.872880800800
RB    1.117691691632    0.753070933574    0.429290800800
 O   -4.235859072781   -2.862468778943   -1.693765204129
 C   -5.287394425722   -3.466792972689   -1.372381363886
 N   -5.329021438908   -4.833095131020   -1.213835427605
 H   -4.504293531300   -5.344710894337   -1.506618115001
 C   -6.491447173678   -5.532474495848   -0.905858529774
 H   -6.379405525049   -6.615569153309   -0.851107324734
 C   -7.669866320608   -4.889551595634   -0.682129929390
 H   -8.573630467912   -5.433223732226   -0.413061323190
 C   -7.742053710174   -3.435751128582   -0.804663722225
 O   -8.722641495940   -2.718517956197   -0.660169630873
 N   -6.486110896602   -2.842226337800   -1.155100206338
 H   -6.522540619627   -1.841155192286   -1.337642721389
