25

 N    4.471399031493    4.245859388576    0.704996401145
 C    5.629659031493    4.950349388576    0.392996401145
 H    5.487949031493    6.015219388576    0.206926401145
 C    4.461659031493    2.905589388576    1.016796401145
 O    3.410129031493    2.301269388576    1.338186401145
 N    5.691139031493    2.307209388576    0.949426401145
 H    5.746269031493    1.335279388576    1.247936401145
 C    6.948809031493    2.905429388576    0.613466401145
 O    7.958739031493    2.214839388576    0.615056401145
 C    6.839899031493    4.332239388576    0.320056401145
 H    7.742429031493    4.876549388576    0.048136401145
 H    3.613289031493    4.755039388576    0.883966401145
RB    1.146189031493    0.772309388576    0.440376401145
 O   -4.286090420632   -2.896400025596   -1.713901015620
 C   -5.337625773573   -3.500724219341   -1.392517175378
 N   -5.379836123451   -4.867284064004   -1.236364406211
 H   -4.555687857743   -5.378825508812   -1.530903876019
 C   -6.542327395433   -5.566579035651   -0.928443248130
 H   -6.430820908995   -6.649830386630   -0.875737683118
 C   -7.720165713770   -4.923415150774   -0.702361092381
 H   -8.623950433374   -5.467074493304   -0.433335738949
 C   -7.791685052296   -3.469359450462   -0.822229154049
 O   -8.771732729281   -2.751851754714   -0.675451672878
 N   -6.535778024078   -2.875894030093   -1.172894363234
 H   -6.571848278096   -1.874479313894   -1.353614688199
