25

 N    4.499897055675    4.265099051805    0.716086512448
 C    5.658157055675    4.969589051805    0.404086512448
 H    5.516447055675    6.034459051805    0.218016512448
 C    4.490157055675    2.924829051805    1.027886512448
 O    3.438627055675    2.320509051805    1.349276512448
 N    5.719637055675    2.326449051805    0.960516512448
 H    5.774767055675    1.354519051805    1.259026512448
 C    6.977307055675    2.924669051805    0.624556512448
 O    7.987237055675    2.234079051805    0.626146512448
 C    6.868397055675    4.351479051805    0.331146512448
 H    7.770927055675    4.895789051805    0.059226512448
 H    3.641787055675    4.774279051805    0.895056512448
RB    1.174687055675    0.791549051805    0.451466512448
 O   -4.336321084162   -2.930330064022   -1.734032316155
 C   -5.387856437103   -3.534654257767   -1.412648475912
 N   -5.430641386181   -4.901462364086   -1.258842563693
 H   -4.607063287175   -5.412927575603   -1.555104213497
 C   -6.593196941650   -5.600674439706   -0.950975858519
 H   -6.482217410146   -6.684075635436   -0.900276201926
 C   -7.770463168750   -4.957278602667   -0.722585719693
 H   -8.674268099986   -5.500925312214   -0.453602741845
 C   -7.841324558337   -3.502977563236   -0.839839708001
 O   -8.820840130287   -2.785204880704   -0.690822956866
 N   -6.585452884034   -2.909569952743   -1.190729296228
 H   -6.621168609787   -1.907821640499   -1.369662352847
