25

 N    4.528395752412    4.284339876840    0.727181008922
 C    5.686655752412    4.988829876840    0.415181008922
 H    5.544945752412    6.053699876840    0.229111008922
 C    4.518655752412    2.944069876840    1.038981008922
 O    3.467125752412    2.339749876840    1.360371008922
 N    5.748135752412    2.345689876840    0.971611008922
 H    5.803265752412    1.373759876840    1.270121008922
 C    7.005805752412    2.943909876840    0.635651008922
 O    8.015735752412    2.253319876840    0.637241008922
 C    6.896895752412    4.370719876840    0.342241008922
 H    7.799425752412    4.915029876840    0.070321008922
 H    3.670285752412    4.793519876840    0.906151008922
RB    1.203185752412    0.810789876840    0.462561008922
 O   -4.386551075136   -2.964258940642   -1.754159231518
 C   -5.438086428078   -3.568583134387   -1.432775391276
 N   -5.481437410539   -4.935630471149   -1.281271327393
 H   -4.658420218884   -5.447017685544   -1.579221544867
 C   -6.644056030585   -5.634761109758   -0.973457830481
 H   -6.533595415175   -6.718305604526   -0.924725471602
 C   -7.820758730730   -4.991141972617   -0.742803999219
 H   -8.724583521983   -5.534776208236   -0.473862545590
 C   -7.890972071413   -3.536605066573   -0.857494118000
 O   -8.869963388047   -2.818576543427   -0.706280978675
 N   -6.635135324148   -2.943253761206   -1.208603859068
 H   -6.670501381906   -1.941181450855   -1.385783597435
