25

 N    4.613895762411    4.342068890344    0.760489618172
 C    5.772155762411    5.046558890344    0.448489618172
 H    5.630445762411    6.111428890344    0.262419618172
 C    4.604155762411    3.001798890344    1.072289618172
 O    3.552625762411    2.397478890344    1.393679618172
 N    5.833635762411    2.403418890344    1.004919618172
 H    5.888765762411    1.431488890344    1.303429618172
 C    7.091305762411    3.001638890344    0.668959618172
 O    8.101235762411    2.311048890344    0.670549618172
 C    6.982395762411    4.428448890344    0.375549618172
 H    7.884925762411    4.972758890344    0.103629618172
 H    3.755785762411    4.851248890344    0.939459618172
RB    1.288685762411    0.868518890344    0.495869618172
 O   -4.537237128274   -3.066039032102   -1.814514857779
 C   -5.588772481215   -3.670363225847   -1.493131017537
 N   -5.633771835285   -5.038077719010   -1.348274766978
 H   -4.812383880990   -5.549221733535   -1.651098375461
 C   -6.796572665396   -5.736972437460   -1.040613823058
 H   -6.687622194253   -6.820910361774   -0.997562300761
 C   -7.971634491570   -5.092731782144   -0.803422527249
 H   -8.875516839469   -5.636329529785   -0.534600781819
 C   -8.039961127222   -3.637540200688   -0.910708498922
 O   -9.017425278543   -2.918795405785   -0.753151765387
 N   -6.784226647239   -3.044349303555   -1.262454476830
 H   -6.818572068208   -2.041359074749   -1.434568758280
