25

 N    4.813417228568    4.476803221907    0.838342481982
 C    5.971677228568    5.181293221907    0.526342481982
 H    5.829967228568    6.246163221907    0.340272481982
 C    4.803677228568    3.136533221907    1.150142481982
 O    3.752147228568    2.532213221907    1.471532481982
 N    6.033157228568    2.538153221907    1.082772481982
 H    6.088287228568    1.566223221907    1.381282481982
 C    7.290827228568    3.136373221907    0.746812481982
 O    8.300757228568    2.445783221907    0.748402481982
 C    7.181917228568    4.563183221907    0.453402481982
 H    8.084447228568    5.107493221907    0.181482481982
 H    3.955307228568    4.985983221907    1.017312481982
RB    1.488207228568    1.003253221907    0.573722481982
 O   -4.888816476100   -3.303492612122   -1.955211876830
 C   -5.940351829041   -3.907816805867   -1.633828036587
 N   -5.988927411866   -5.276833815882   -1.503122072517
 H   -5.171053522056   -5.787371345645   -1.816302921182
 C   -7.152116471181   -5.975222762552   -1.195780331358
 H   -7.046437354540   -7.059897024977   -1.164816945928
 C   -8.323619309875   -5.329774906913   -0.944674392196
 H   -9.227625162117   -5.873292696217   -0.676106388288
 C   -8.387855132491   -3.873321068711   -1.036202114120
 O   -9.362003772332   -3.153163545415   -0.865140894861
 N   -7.132345249820   -3.280460705701   -1.389304481882
 H   -7.164464795328   -2.275604741005   -1.550627629363
