25

 N    4.898934935777    4.534558683577    0.871758727351
 C    6.057194935777    5.239048683577    0.559758727351
 H    5.915484935777    6.303918683577    0.373688727351
 C    4.889194935777    3.194288683577    1.183558727351
 O    3.837664935777    2.589968683577    1.504948727351
 N    6.118674935777    2.595908683577    1.116188727351
 H    6.173804935777    1.623978683577    1.414698727351
 C    7.376344935777    3.194128683577    0.780228727351
 O    8.386274935777    2.503538683577    0.781818727351
 C    7.267434935777    4.620938683577    0.486818727351
 H    8.169964935777    5.165248683577    0.214898727351
 H    4.040824935777    5.043738683577    1.050728727351
RB    1.573724935777    1.061008683577    0.607138727351
 O   -5.039484832027   -3.405246255415   -2.015459866972
 C   -6.091020184968   -4.009570449160   -1.694076026730
 N   -6.141022191812   -5.379054173500   -1.568914778414
 H   -5.324542404989   -5.889321063911   -1.886148085556
 C   -7.304363519227   -6.077243598573   -1.261696066347
 H   -7.199987407787   -7.162168837400   -1.235467913230
 C   -8.474447166035   -5.431365699151   -1.005138028837
 H   -9.378501781068   -5.974851306066   -0.736669056677
 C   -8.537052224565   -3.974466008771   -1.090491683811
 O   -9.509877612203   -3.253796480548   -0.914138152918
 N   -7.281632917738   -3.381731113250   -1.444126333291
 H   -7.312860435404   -2.376176798314   -1.601217691279
