25

 N    4.927441899970    4.553811925713    0.882903622990
 C    6.085701899970    5.258301925713    0.570903622990
 H    5.943991899970    6.323171925713    0.384833622990
 C    4.917701899970    3.213541925713    1.194703622990
 O    3.866171899970    2.609221925713    1.516093622990
 N    6.147181899970    2.615161925713    1.127333622990
 H    6.202311899970    1.643231925713    1.425843622990
 C    7.404851899970    3.213381925713    0.791373622990
 O    8.414781899970    2.522791925713    0.792963622990
 C    7.295941899970    4.640191925713    0.497963622990
 H    8.198471899970    5.184501925713    0.226043622990
 H    4.069331899970    5.062991925713    1.061873622990
RB    1.602231899970    1.080261925713    0.618283622990
 O   -5.089706555546   -3.439162714933   -2.035536383171
 C   -6.141241908487   -4.043486908679   -1.714152542928
 N   -6.191706211874   -5.413115669408   -1.590776605779
 H   -5.375677359648   -5.923291460846   -1.909314024404
 C   -7.355096584315   -6.111240691225   -1.283597261382
 H   -7.251142556045   -7.196242235879   -1.258893605673
 C   -8.524720320336   -5.465229481334   -1.025283767864
 H   -9.428790680393   -6.008704623933   -0.756846634921
 C   -8.586796963821   -4.008192081971   -1.108649556955
 O   -9.559193395899   -3.287362682028   -0.930591907136
 N   -7.331407129092   -3.415497099135   -1.462455687222
 H   -7.362345049186   -2.409721852250   -1.618184074980
