25

 N    4.984457365102    4.592320399144    0.905202182716
 C    6.142717365102    5.296810399144    0.593202182716
 H    6.001007365102    6.361680399144    0.407132182716
 C    4.974717365102    3.252050399144    1.217002182716
 O    3.923187365102    2.647730399144    1.538392182716
 N    6.204197365102    2.653670399144    1.149632182716
 H    6.259327365102    1.681740399144    1.448142182716
 C    7.461867365102    3.251890399144    0.813672182716
 O    8.471797365102    2.561300399144    0.815262182716
 C    7.352957365102    4.678700399144    0.520262182716
 H    8.255487365102    5.223010399144    0.248342182716
 H    4.126347365102    5.101500399144    1.084172182716
RB    1.659247365102    1.118770399144    0.640582182716
 O   -5.190148465838   -3.506993644812   -2.075680647119
 C   -6.241683818779   -4.111317838557   -1.754296806876
 N   -6.293053699494   -5.481222040914   -1.634401762273
 H   -5.477906933166   -5.991214666667   -1.955480855212
 C   -7.456539720941   -6.179221268263   -1.327298830153
 H   -7.353412199403   -7.264365276055   -1.305567305740
 C   -8.625262611302   -5.532957365135   -1.065562701274
 H   -9.529363731973   -6.076411961949   -0.797187580029
 C   -8.686304309176   -4.075659665788   -1.145052789972
 O   -9.657860340161   -3.354525545332   -0.963672442169
 N   -7.430972369189   -3.483041821345   -1.499193395566
 H   -7.461342315561   -2.476841316793   -1.652263784265
