25

 N    5.041474819365    4.630831378573    0.927511962912
 C    6.199734819365    5.335321378573    0.615511962912
 H    6.058024819365    6.400191378573    0.429441962912
 C    5.031734819365    3.290561378573    1.239311962912
 O    3.980204819365    2.686241378573    1.560701962912
 N    6.261214819365    2.692181378573    1.171941962912
 H    6.316344819365    1.720251378573    1.470451962912
 C    7.518884819365    3.290401378573    0.835981962912
 O    8.528814819365    2.599811378573    0.837571962912
 C    7.409974819365    4.717211378573    0.542571962912
 H    8.312504819365    5.261521378573    0.270651962912
 H    4.183364819365    5.140011378573    1.106481962912
RB    1.716264819365    1.157281378573    0.662891962912
 O   -5.290588386999   -3.574822068692   -2.115813690597
 C   -6.342123739940   -4.179146262437   -1.794429850354
 N   -6.394374641830   -5.549307588281   -1.677900907967
 H   -5.580084496163   -6.059116112012   -2.001436594872
 C   -7.557953188179   -6.247184886667   -1.370871434992
 H   -7.455629388305   -7.332458718117   -1.352013724398
 C   -8.725799733700   -5.600685714729   -1.105825599525
 H   -9.629930678459   -6.144120263315   -0.837510361358
 C   -8.785834736748   -4.143146609829   -1.181567950271
 O   -9.756572987276   -3.421726607443   -0.996974340632
 N   -7.530559325462   -3.550602503398   -1.536032167629
 H   -7.560375834884   -2.543997686070   -1.686531504498
