25

 N    5.069984270609    4.650087756526    0.938670892460
 C    6.228244270609    5.354577756526    0.626670892460
 H    6.086534270609    6.419447756526    0.440600892460
 C    5.060244270609    3.309817756526    1.250470892460
 O    4.008714270609    2.705497756526    1.571860892460
 N    6.289724270609    2.711437756526    1.183100892460
 H    6.344854270609    1.739507756526    1.481610892460
 C    7.547394270609    3.309657756526    0.847140892460
 O    8.557324270609    2.619067756526    0.848730892460
 C    7.438484270609    4.736467756526    0.553730892460
 H    8.341014270609    5.280777756526    0.281810892460
 H    4.211874270609    5.159267756526    1.117640892460
RB    1.744774270609    1.176537756526    0.674050892460
 O   -5.340807623467   -3.608735392394   -2.135876172887
 C   -6.392342976408   -4.213059586139   -1.814492332644
 N   -6.445025469699   -5.583343022122   -1.699605127212
 H   -5.631154413745   -6.093059264572   -2.024338509179
 C   -7.608649153642   -6.281160751585   -1.392611327578
 H   -7.506718945639   -7.366495067279   -1.375155143141
 C   -8.776066424476   -5.634550077388   -1.125951282066
 H   -9.680211943022   -6.177974783689   -0.857665220605
 C   -8.835608337776   -4.176896912273   -1.199865816425
 O   -9.805945917380   -3.455340614648   -1.013704965101
 N   -7.580360690879   -3.584388464121   -1.554487927216
 H   -7.609905777902   -2.577588922797   -1.703733042125
