25

 N    5.155515420083    4.707860215543    0.972163081050
 C    6.313775420083    5.412350215543    0.660163081050
 H    6.172065420083    6.477220215543    0.474093081050
 C    5.145775420083    3.367590215543    1.283963081050
 O    4.094245420083    2.763270215543    1.605353081050
 N    6.375255420083    2.769210215543    1.216593081050
 H    6.430385420083    1.797280215543    1.515103081050
 C    7.632925420083    3.367430215543    0.880633081050
 O    8.642855420083    2.676840215543    0.882223081050
 C    7.524015420083    4.794240215543    0.587223081050
 H    8.426545420083    5.338550215543    0.315303081050
 H    4.297405420083    5.217040215543    1.151133081050
RB    1.830305420083    1.234310215543    0.707543081050
 O   -5.491462537129   -3.710472038341   -2.196048219808
 C   -6.542997890070   -4.314796232086   -1.874664379565
 N   -6.596940808487   -5.685422030052   -1.764544928503
 H   -5.784291636809   -6.194861019385   -2.092754850380
 C   -7.760695616134   -6.383066390494   -1.457654152457
 H   -7.659914368959   -7.468565817599   -1.444267723828
 C   -8.926859323456   -5.736143970059   -1.186306372358
 H   -9.831047268977   -6.279539854573   -0.918104931707
 C   -8.984961456170   -4.278173248302   -1.254912962960
 O   -9.954128690338   -3.556232803109   -1.064200516042
 N   -7.729795160528   -3.685767218167   -1.609993831747
 H   -7.758546446256   -2.678411366594   -1.755595633827
