25

 N    5.269563177818    4.784897278391    1.016853084014
 C    6.427823177818    5.489387278391    0.704853084014
 H    6.286113177818    6.554257278391    0.518783084014
 C    5.259823177818    3.444627278391    1.328653084014
 O    4.208293177818    2.840307278391    1.650043084014
 N    6.489303177818    2.846247278391    1.261283084014
 H    6.544433177818    1.874317278391    1.559793084014
 C    7.746973177818    3.444467278391    0.925323084014
 O    8.756903177818    2.753877278391    0.926913084014
 C    7.638063177818    4.871277278391    0.631913084014
 H    8.540593177818    5.415587278391    0.359993084014
 H    4.411453177818    5.294077278391    1.195823084014
RB    1.944353177818    1.311347278391    0.752233084014
 O   -5.692329530241   -3.846113782112   -2.276243864193
 C   -6.743864883182   -4.450437975857   -1.954860023950
 N   -6.799412124999   -5.821469471888   -1.850752623546
 H   -5.988313934313   -6.330539197242   -2.183342840922
 C   -7.963332362125   -6.518894420392   -1.543990537865
 H   -7.864012527679   -7.604579679278   -1.535735138194
 C   -9.127900682103   -5.871604503463   -1.266731778499
 H  -10.032142346631   -6.414963537217   -0.998636807510
 C   -9.184170717365   -4.413262392692   -1.328645578928
 O  -10.151847819283   -3.690862304767   -1.132193266675
 N   -7.929108534244   -3.820983096882   -1.684305402197
 H   -7.956847038360   -2.812945244611   -1.825311064067
