9

 C   -0.642335920379   -1.623939715914    0.000000000000
 H   -1.621262920379   -1.132151715914    0.000000000000
 H   -0.535189920379   -2.263748715914    0.888272000000
 H   -0.535189920379   -2.263748715914   -0.888272000000
 C    0.442291079621   -0.578355715914    0.000000000000
 O    0.281187079621    0.631195284086    0.000000000000
 O    1.684577079621   -1.155363715914    0.000000000000
 H    2.319113079621   -0.416800715914    0.000000000000
 K   -0.735716635991    1.050607769804    0.000000000000
