9

 C   -0.060100358806   -1.864077361596    0.000000000000
 H   -1.039027358806   -1.372289361596    0.000000000000
 H    0.047045641194   -2.503886361596    0.888272000000
 H    0.047045641194   -2.503886361596   -0.888272000000
 C    1.024526641194   -0.818493361596    0.000000000000
 O    0.863422641194    0.391057638404    0.000000000000
 O    2.266812641194   -1.395501361596    0.000000000000
 H    2.901348641194   -0.656938361596    0.000000000000
 K   -1.632613751670    1.420524648802    0.000000000000
