9

 C   -0.023710636208   -1.879085964451    0.000000000000
 H   -1.002637636208   -1.387297964451    0.000000000000
 H    0.083435363792   -2.518894964451    0.888272000000
 H    0.083435363792   -2.518894964451   -0.888272000000
 C    1.060916363792   -0.833501964451    0.000000000000
 O    0.899812363792    0.376049035549    0.000000000000
 O    2.303202363792   -1.410509964451    0.000000000000
 H    2.937738363792   -0.671946964451    0.000000000000
 K   -1.688669821400    1.443644453739    0.000000000000
