9

 C    0.194627699382   -1.969137581582    0.000000000000
 H   -0.784299300618   -1.477349581582    0.000000000000
 H    0.301773699382   -2.608946581582    0.888272000000
 H    0.301773699382   -2.608946581582   -0.888272000000
 C    1.279254699382   -0.923553581582    0.000000000000
 O    1.118150699382    0.285997418418    0.000000000000
 O    2.521540699382   -1.500561581582    0.000000000000
 H    3.156076699382   -0.761998581582    0.000000000000
 K   -2.025006239780    1.582363283364    0.000000000000
