9

 C    0.267407144578   -1.999154787293    0.000000000000
 H   -0.711519855422   -1.507366787293    0.000000000000
 H    0.374553144578   -2.638963787293    0.888272000000
 H    0.374553144578   -2.638963787293   -0.888272000000
 C    1.352034144578   -0.953570787293    0.000000000000
 O    1.190930144578    0.255980212707    0.000000000000
 O    2.594320144578   -1.530578787293    0.000000000000
 H    3.228856144578   -0.792015787293    0.000000000000
 K   -2.137118379240    1.628602893238    0.000000000000
