9

 C    0.303796867177   -2.014163390148    0.000000000000
 H   -0.675130132823   -1.522375390148    0.000000000000
 H    0.410942867177   -2.653972390148    0.888272000000
 H    0.410942867177   -2.653972390148   -0.888272000000
 C    1.388423867177   -0.968579390148    0.000000000000
 O    1.227319867177    0.240971609852    0.000000000000
 O    2.630709867177   -1.545587390148    0.000000000000
 H    3.265245867177   -0.807024390148    0.000000000000
 K   -2.193174448970    1.651722698176    0.000000000000
