9

 C    0.558524925365   -2.119223610134    0.000000000000
 H   -0.420402074635   -1.627435610134    0.000000000000
 H    0.665670925365   -2.759032610134    0.888272000000
 H    0.665670925365   -2.759032610134   -0.888272000000
 C    1.643151925365   -1.073639610134    0.000000000000
 O    1.482047925365    0.135911389866    0.000000000000
 O    2.885437925365   -1.650647610134    0.000000000000
 H    3.519973925365   -0.912084610134    0.000000000000
 K   -2.585566937080    1.813561332737    0.000000000000
