9

 C    0.667694093160   -2.164249418699    0.000000000000
 H   -0.311232906840   -1.672461418699    0.000000000000
 H    0.774840093160   -2.804058418699    0.888272000000
 H    0.774840093160   -2.804058418699   -0.888272000000
 C    1.752321093160   -1.118665418699    0.000000000000
 O    1.591217093160    0.090885581301    0.000000000000
 O    2.994607093160   -1.695673418699    0.000000000000
 H    3.629143093160   -0.957110418699    0.000000000000
 K   -2.753735146270    1.882920747550    0.000000000000
