9

 C    0.740473538356   -2.194266624410    0.000000000000
 H   -0.238453461644   -1.702478624410    0.000000000000
 H    0.847619538356   -2.834075624410    0.888272000000
 H    0.847619538356   -2.834075624410   -0.888272000000
 C    1.825100538356   -1.148682624410    0.000000000000
 O    1.663996538356    0.060868375590    0.000000000000
 O    3.067386538356   -1.725690624410    0.000000000000
 H    3.701922538356   -0.987127624410    0.000000000000
 K   -2.865847285730    1.929160357424    0.000000000000
