9

 C    0.886032428750   -2.254301035830    0.000000000000
 H   -0.092894571250   -1.762513035830    0.000000000000
 H    0.993178428750   -2.894110035830    0.888272000000
 H    0.993178428750   -2.894110035830   -0.888272000000
 C    1.970659428750   -1.208717035830    0.000000000000
 O    1.809555428750    0.000833964170    0.000000000000
 O    3.212945428750   -1.785725035830    0.000000000000
 H    3.847481428750   -1.047162035830    0.000000000000
 K   -3.090071564650    2.021639577174    0.000000000000
