9

 C    0.922422151348   -2.269309638685    0.000000000000
 H   -0.056504848652   -1.777521638685    0.000000000000
 H    1.029568151348   -2.909118638685    0.888272000000
 H    1.029568151348   -2.909118638685   -0.888272000000
 C    2.007049151348   -1.223725638685    0.000000000000
 O    1.845945151348   -0.014174638685    0.000000000000
 O    3.249335151348   -1.800733638685    0.000000000000
 H    3.883871151348   -1.062170638685    0.000000000000
 K   -3.146127634380    2.044759382111    0.000000000000
