9

 C    1.140760486938   -2.359361255816    0.000000000000
 H    0.161833486938   -1.867573255816    0.000000000000
 H    1.247906486938   -2.999170255816    0.888272000000
 H    1.247906486938   -2.999170255816   -0.888272000000
 C    2.225387486938   -1.313777255816    0.000000000000
 O    2.064283486938   -0.104226255816    0.000000000000
 O    3.467673486938   -1.890785255816    0.000000000000
 H    4.102209486938   -1.152222255816    0.000000000000
 K   -3.482464052760    2.183478211736    0.000000000000
