9

 C    1.213539932134   -2.389378461527    0.000000000000
 H    0.234612932134   -1.897590461527    0.000000000000
 H    1.320685932134   -3.029187461527    0.888272000000
 H    1.320685932134   -3.029187461527   -0.888272000000
 C    2.298166932134   -1.343794461527    0.000000000000
 O    2.137062932134   -0.134243461527    0.000000000000
 O    3.540452932134   -1.920802461527    0.000000000000
 H    4.174988932134   -1.182239461527    0.000000000000
 K   -3.594576192220    2.229717821610    0.000000000000
