9

 C    1.504657712921   -2.509447284368    0.000000000000
 H    0.525730712921   -2.017659284368    0.000000000000
 H    1.611803712921   -3.149256284368    0.888272000000
 H    1.611803712921   -3.149256284368   -0.888272000000
 C    2.589284712921   -1.463863284368    0.000000000000
 O    2.428180712921   -0.254312284368    0.000000000000
 O    3.831570712921   -2.040871284368    0.000000000000
 H    4.466106712921   -1.302308284368    0.000000000000
 K   -4.043024750060    2.414676261109    0.000000000000
