9

 C    1.541047435519   -2.524455887223    0.000000000000
 H    0.562120435519   -2.032667887223    0.000000000000
 H    1.648193435519   -3.164264887223    0.888272000000
 H    1.648193435519   -3.164264887223   -0.888272000000
 C    2.625674435519   -1.478871887223    0.000000000000
 O    2.464570435519   -0.269320887223    0.000000000000
 O    3.867960435519   -2.055879887223    0.000000000000
 H    4.502496435519   -1.317316887223    0.000000000000
 K   -4.099080819790    2.437796066047    0.000000000000
