9

 C    1.686606325912   -2.584490298644    0.000000000000
 H    0.707679325912   -2.092702298644    0.000000000000
 H    1.793752325912   -3.224299298644    0.888272000000
 H    1.793752325912   -3.224299298644   -0.888272000000
 C    2.771233325912   -1.538906298644    0.000000000000
 O    2.610129325912   -0.329355298644    0.000000000000
 O    4.013519325912   -2.115914298644    0.000000000000
 H    4.648055325912   -1.377351298644    0.000000000000
 K   -4.323305098710    2.530275285796    0.000000000000
