9

 C    1.722996048511   -2.599498901499    0.000000000000
 H    0.744069048511   -2.107710901499    0.000000000000
 H    1.830142048511   -3.239307901499    0.888272000000
 H    1.830142048511   -3.239307901499   -0.888272000000
 C    2.807623048511   -1.553914901499    0.000000000000
 O    2.646519048511   -0.344363901499    0.000000000000
 O    4.049909048511   -2.130922901499    0.000000000000
 H    4.684445048511   -1.392359901499    0.000000000000
 K   -4.379361168440    2.553395090734    0.000000000000
