9

 C    1.759385771109   -2.614507504354    0.000000000000
 H    0.780458771109   -2.122719504354    0.000000000000
 H    1.866531771109   -3.254316504354    0.888272000000
 H    1.866531771109   -3.254316504354   -0.888272000000
 C    2.844012771109   -1.568923504354    0.000000000000
 O    2.682908771109   -0.359372504354    0.000000000000
 O    4.086298771109   -2.145931504354    0.000000000000
 H    4.720834771109   -1.407368504354    0.000000000000
 K   -4.435417238170    2.576514895671    0.000000000000
