9

 C    1.795775493707   -2.629516107209    0.000000000000
 H    0.816848493707   -2.137728107209    0.000000000000
 H    1.902921493707   -3.269325107209    0.888272000000
 H    1.902921493707   -3.269325107209   -0.888272000000
 C    2.880402493707   -1.583932107209    0.000000000000
 O    2.719298493707   -0.374381107209    0.000000000000
 O    4.122688493707   -2.160940107209    0.000000000000
 H    4.757224493707   -1.422377107209    0.000000000000
 K   -4.491473307900    2.599634700608    0.000000000000
