9

 C    1.832165216305   -2.644524710064    0.000000000000
 H    0.853238216305   -2.152736710064    0.000000000000
 H    1.939311216305   -3.284333710064    0.888272000000
 H    1.939311216305   -3.284333710064   -0.888272000000
 C    2.916792216305   -1.598940710064    0.000000000000
 O    2.755688216305   -0.389389710064    0.000000000000
 O    4.159078216305   -2.175948710064    0.000000000000
 H    4.793614216305   -1.437385710064    0.000000000000
 K   -4.547529377630    2.622754505546    0.000000000000
