9

 C    1.868554938904   -2.659533312919    0.000000000000
 H    0.889627938904   -2.167745312919    0.000000000000
 H    1.975700938904   -3.299342312919    0.888272000000
 H    1.975700938904   -3.299342312919   -0.888272000000
 C    2.953181938904   -1.613949312919    0.000000000000
 O    2.792077938904   -0.404398312919    0.000000000000
 O    4.195467938904   -2.190957312919    0.000000000000
 H    4.830003938904   -1.452394312919    0.000000000000
 K   -4.603585447360    2.645874310483    0.000000000000
