9

 C    1.941334384100   -2.689550518630    0.000000000000
 H    0.962407384100   -2.197762518630    0.000000000000
 H    2.048480384100   -3.329359518630    0.888272000000
 H    2.048480384100   -3.329359518630   -0.888272000000
 C    3.025961384100   -1.643966518630    0.000000000000
 O    2.864857384100   -0.434415518630    0.000000000000
 O    4.268247384100   -2.220974518630    0.000000000000
 H    4.902783384100   -1.482411518630    0.000000000000
 K   -4.715697586820    2.692113920358    0.000000000000
