9

 C    2.050503551895   -2.734576327195    0.000000000000
 H    1.071576551895   -2.242788327195    0.000000000000
 H    2.157649551895   -3.374385327195    0.888272000000
 H    2.157649551895   -3.374385327195   -0.888272000000
 C    3.135130551895   -1.688992327195    0.000000000000
 O    2.974026551895   -0.479441327195    0.000000000000
 O    4.377416551895   -2.266000327195    0.000000000000
 H    5.011952551895   -1.527437327195    0.000000000000
 K   -4.883865796010    2.761473335170    0.000000000000
