9

 C    2.159672719690   -2.779602135760    0.000000000000
 H    1.180745719690   -2.287814135760    0.000000000000
 H    2.266818719690   -3.419411135760    0.888272000000
 H    2.266818719690   -3.419411135760   -0.888272000000
 C    3.244299719690   -1.734018135760    0.000000000000
 O    3.083195719690   -0.524467135760    0.000000000000
 O    4.486585719690   -2.311026135760    0.000000000000
 H    5.121121719690   -1.572463135760    0.000000000000
 K   -5.052034005200    2.830832749982    0.000000000000
