9

 C    2.232452164887   -2.809619341471    0.000000000000
 H    1.253525164887   -2.317831341471    0.000000000000
 H    2.339598164887   -3.449428341471    0.888272000000
 H    2.339598164887   -3.449428341471   -0.888272000000
 C    3.317079164887   -1.764035341471    0.000000000000
 O    3.155975164887   -0.554484341471    0.000000000000
 O    4.559365164887   -2.341043341471    0.000000000000
 H    5.193901164887   -1.602480341471    0.000000000000
 K   -5.164146144660    2.877072359857    0.000000000000
