9

 C    2.341621332682   -2.854645150036    0.000000000000
 H    1.362694332682   -2.362857150036    0.000000000000
 H    2.448767332682   -3.494454150036    0.888272000000
 H    2.448767332682   -3.494454150036   -0.888272000000
 C    3.426248332682   -1.809061150036    0.000000000000
 O    3.265144332682   -0.599510150036    0.000000000000
 O    4.668534332682   -2.386069150036    0.000000000000
 H    5.303070332682   -1.647506150036    0.000000000000
 K   -5.332314353850    2.946431774669    0.000000000000
