9

 C    2.450790500477   -2.899670958602    0.000000000000
 H    1.471863500477   -2.407882958602    0.000000000000
 H    2.557936500477   -3.539479958602    0.888272000000
 H    2.557936500477   -3.539479958602   -0.888272000000
 C    3.535417500477   -1.854086958602    0.000000000000
 O    3.374313500477   -0.644535958602    0.000000000000
 O    4.777703500477   -2.431094958602    0.000000000000
 H    5.412239500477   -1.692531958602    0.000000000000
 K   -5.500482563040    3.015791189481    0.000000000000
