9

 C    2.487180223075   -2.914679561457    0.000000000000
 H    1.508253223075   -2.422891561457    0.000000000000
 H    2.594326223075   -3.554488561457    0.888272000000
 H    2.594326223075   -3.554488561457   -0.888272000000
 C    3.571807223075   -1.869095561457    0.000000000000
 O    3.410703223075   -0.659544561457    0.000000000000
 O    4.814093223075   -2.446103561457    0.000000000000
 H    5.448629223075   -1.707540561457    0.000000000000
 K   -5.556538632770    3.038910994419    0.000000000000
