9

 N    0.957305406033   -0.276637540912    0.543628819321
 C    0.558043406033    0.345065459088    1.862388819321
 H    0.222728406033   -0.159915540912   -0.165179180679
 H    1.133049406033   -1.284293540912    0.640490819321
 H    1.814344406033    0.149954459088    0.170609819321
 H    1.377027406033    0.188768459088    2.572780819321
 H   -0.356929593967   -0.148813540912    2.206961819321
 H    0.385294406033    1.413700459088    1.695057819321
CL   -0.706716274817   -0.012229672667   -1.062018892981
