9

 N    1.069219732840   -0.294420379272    0.651617185626
 C    0.669957732840    0.327282620728    1.970377185626
 H    0.334642732840   -0.177698379272   -0.057190814374
 H    1.244963732840   -1.302076379272    0.748479185626
 H    1.926258732840    0.132171620728    0.278598185626
 H    1.488941732840    0.170985620728    2.680769185626
 H   -0.245015267160   -0.166596379272    2.314950185626
 H    0.497208732840    1.395917620728    1.803046185626
CL   -0.809289182051    0.004068843184   -1.160993537207
