9

 N    1.106524508442   -0.300347992058    0.687613307728
 C    0.707262508442    0.321355007942    2.006373307728
 H    0.371947508442   -0.183625992058   -0.021194692272
 H    1.282268508442   -1.308003992058    0.784475307728
 H    1.963563508442    0.126244007942    0.314594307728
 H    1.526246508442    0.165058007942    2.716765307728
 H   -0.207710491558   -0.172523992058    2.350946307728
 H    0.534513508442    1.389990007942    1.839042307728
CL   -0.843480151130    0.009501681801   -1.193985085282
