9

 N    1.143829284045   -0.306275604845    0.723609429830
 C    0.744567284045    0.315427395155    2.042369429830
 H    0.409252284045   -0.189553604845    0.014801429830
 H    1.319573284045   -1.313931604845    0.820471429830
 H    2.000868284045    0.120316395155    0.350590429830
 H    1.563551284045    0.159130395155    2.752761429830
 H   -0.170405715955   -0.178451604845    2.386942429830
 H    0.571818284045    1.384062395155    1.875038429830
CL   -0.877671120208    0.014934520418   -1.226976633357
