9

 N    1.181134059647   -0.312203217631    0.759605551932
 C    0.781872059647    0.309499782369    2.078365551932
 H    0.446557059647   -0.195481217631    0.050797551932
 H    1.356878059647   -1.319859217631    0.856467551932
 H    2.038173059647    0.114388782369    0.386586551932
 H    1.600856059647    0.153202782369    2.788757551932
 H   -0.133100940353   -0.184379217631    2.422938551932
 H    0.609123059647    1.378134782369    1.911034551932
CL   -0.911862089286    0.020367359035   -1.259968181432
