9

 N    4.202820883446   -0.792339853338    3.675291442183
 C    3.803558883446   -0.170636853338    4.994051442183
 H    3.468243883446   -0.675617853338    2.966483442183
 H    4.378564883446   -1.799995853338    3.772153442183
 H    5.059859883446   -0.365747853338    3.302272442183
 H    4.622542883446   -0.326933853338    5.704443442183
 H    2.888585883446   -0.664515853338    5.338624442183
 H    3.630809883446    0.897998146662    4.826720442183
CL   -3.681330584626    0.460427287012   -3.932283575522
