9

 N    1.218438835250   -0.318130830418    0.795601674034
 C    0.819176835250    0.303572169582    2.114361674034
 H    0.483861835250   -0.201408830418    0.086793674034
 H    1.394182835250   -1.325786830418    0.892463674034
 H    2.075477835250    0.108461169582    0.422582674034
 H    1.638160835250    0.147275169582    2.824753674034
 H   -0.095796164750   -0.190306830418    2.458934674034
 H    0.646427835250    1.372207169582    1.947030674034
CL   -0.946053058365    0.025800197652   -1.292959729507
