9

 N    1.255743610852   -0.324058443204    0.831597796136
 C    0.856481610852    0.297644556796    2.150357796136
 H    0.521166610852   -0.207336443204    0.122789796136
 H    1.431487610852   -1.331714443204    0.928459796136
 H    2.112782610852    0.102533556796    0.458578796136
 H    1.675465610852    0.141347556796    2.860749796136
 H   -0.058491389148   -0.196234443204    2.494930796136
 H    0.683732610852    1.366279556796    1.983026796136
CL   -0.980244027443    0.031233036269   -1.325951277583
