9

 N    1.293048386455   -0.329986055991    0.867593918238
 C    0.893786386455    0.291716944009    2.186353918238
 H    0.558471386455   -0.213264055991    0.158785918238
 H    1.468792386455   -1.337642055991    0.964455918238
 H    2.150087386455    0.096605944009    0.494574918238
 H    1.712770386455    0.135419944009    2.896745918238
 H   -0.021186613545   -0.202162055991    2.530926918238
 H    0.721037386455    1.360351944009    2.019022918238
CL   -1.014434996521    0.036665874886   -1.358942825658
