9

 N    1.330353162057   -0.335913668777    0.903590040339
 C    0.931091162057    0.285789331223    2.222350040339
 H    0.595776162057   -0.219191668777    0.194782040339
 H    1.506097162057   -1.343569668777    1.000452040339
 H    2.187392162057    0.090678331223    0.530571040339
 H    1.750075162057    0.129492331223    2.932742040339
 H    0.016118162057   -0.208089668777    2.566923040339
 H    0.758342162057    1.354424331223    2.055019040339
CL   -1.048625965599    0.042098713503   -1.391934373733
