9

 N    1.367657937660   -0.341841281564    0.939586162441
 C    0.968395937660    0.279861718436    2.258346162441
 H    0.633080937660   -0.225119281564    0.230778162441
 H    1.543401937660   -1.349497281564    1.036448162441
 H    2.224696937660    0.084750718436    0.566567162441
 H    1.787379937660    0.123564718436    2.968738162441
 H    0.053422937660   -0.214017281564    2.602919162441
 H    0.795646937660    1.348496718436    2.091015162441
CL   -1.082816934678    0.047531552120   -1.424925921808
