9

 N    1.628791366877   -0.383334571069    1.191559017154
 C    1.229529366877    0.238368428931    2.510319017154
 H    0.894214366877   -0.266612571069    0.482751017154
 H    1.804535366877   -1.390990571069    1.288421017154
 H    2.485830366877    0.043257428931    0.818540017154
 H    2.048513366877    0.082071428931    3.220711017154
 H    0.314556366877   -0.255510571069    2.854892017154
 H    1.056780366877    1.307003428931    2.342988017154
CL   -1.322153718225    0.085561422439   -1.655866758334
