9

 N    1.740705693684   -0.401117409429    1.299547383460
 C    1.341443693684    0.220585590571    2.618307383460
 H    1.006128693684   -0.284395409429    0.590739383460
 H    1.916449693684   -1.408773409429    1.396409383460
 H    2.597744693684    0.025474590571    0.926528383460
 H    2.160427693684    0.064288590571    3.328699383460
 H    0.426470693684   -0.273293409429    2.962880383460
 H    1.168694693684    1.289220590571    2.450976383460
CL   -1.424726625460    0.101859938290   -1.754841402560
