9

 N    1.852620020492   -0.418900247788    1.407535749766
 C    1.453358020492    0.202802752212    2.726295749766
 H    1.118043020492   -0.302178247788    0.698727749766
 H    2.028364020492   -1.426556247788    1.504397749766
 H    2.709659020492    0.007691752212    1.034516749766
 H    2.272342020492    0.046505752212    3.436687749766
 H    0.538385020492   -0.291076247788    3.070868749766
 H    1.280609020492    1.271437752212    2.558964749766
CL   -1.527299532695    0.118158454141   -1.853816046785
