9

 N    1.889924796094   -0.424827860575    1.443531871867
 C    1.490662796094    0.196875139425    2.762291871867
 H    1.155347796094   -0.308105860575    0.734723871867
 H    2.065668796094   -1.432483860575    1.540393871867
 H    2.746963796094    0.001764139425    1.070512871867
 H    2.309646796094    0.040578139425    3.472683871867
 H    0.575689796094   -0.297003860575    3.106864871867
 H    1.317913796094    1.265510139425    2.594960871867
CL   -1.561490501773    0.123591292758   -1.886807594861
