9

 N    1.964534347299   -0.436683086148    1.515524116071
 C    1.565272347299    0.185019913852    2.834284116071
 H    1.229957347299   -0.319961086148    0.806716116071
 H    2.140278347299   -1.444339086148    1.612386116071
 H    2.821573347299   -0.010091086148    1.142505116071
 H    2.384256347299    0.028722913852    3.544676116071
 H    0.650299347299   -0.308859086148    3.178857116071
 H    1.392523347299    1.253654913852    2.666953116071
CL   -1.629872439930    0.134456969992   -1.952790691011
