9

 N    2.039143898504   -0.448538311721    1.587516360275
 C    1.639881898504    0.173164688279    2.906276360275
 H    1.304566898504   -0.331816311721    0.878708360275
 H    2.214887898504   -1.456194311721    1.684378360275
 H    2.896182898504   -0.021946311721    1.214497360275
 H    2.458865898504    0.016867688279    3.616668360275
 H    0.724908898504   -0.320714311721    3.250849360275
 H    1.467132898504    1.241799688279    2.738945360275
CL   -1.698254378086    0.145322647226   -2.018773787161
