9

 N    2.151058225311   -0.466321150080    1.695504726581
 C    1.751796225311    0.155381849920    3.014264726581
 H    1.416481225311   -0.349599150080    0.986696726581
 H    2.326802225311   -1.473977150080    1.792366726581
 H    3.008097225311   -0.039729150080    1.322485726581
 H    2.570780225311   -0.000915150080    3.724656726581
 H    0.836823225311   -0.338497150080    3.358837726581
 H    1.579047225311    1.224016849920    2.846933726581
CL   -1.800827285321    0.161621163077   -2.117748431387
