9

 N    2.225667776516   -0.478176375653    1.767496970784
 C    1.826405776516    0.143526624347    3.086256970784
 H    1.491090776516   -0.361454375653    1.058688970784
 H    2.401411776516   -1.485832375653    1.864358970784
 H    3.082706776516   -0.051584375653    1.394477970784
 H    2.645389776516   -0.012770375653    3.796648970784
 H    0.911432776516   -0.350352375653    3.430829970784
 H    1.653656776516    1.212161624347    2.918925970784
CL   -1.869209223478    0.172486840311   -2.183731527537
