9

 N    2.374886878926   -0.501886826799    1.911481459192
 C    1.975624878926    0.119816173201    3.230241459192
 H    1.640309878926   -0.385164826799    1.202673459192
 H    2.550630878926   -1.509542826799    2.008343459192
 H    3.231925878926   -0.075294826799    1.538462459192
 H    2.794608878926   -0.036480826799    3.940633459192
 H    1.060651878926   -0.374062826799    3.574814459192
 H    1.802875878926    1.188451173201    3.062910459192
CL   -2.005973099791    0.194218194779   -2.315697719838
