9

 N    2.486801205733   -0.519669665159    2.019469825497
 C    2.087539205733    0.102033334841    3.338229825497
 H    1.752224205733   -0.402947665159    1.310661825497
 H    2.662545205733   -1.527325665159    2.116331825497
 H    3.343840205733   -0.093077665159    1.646450825497
 H    2.906523205733   -0.054263665159    4.048621825497
 H    1.172566205733   -0.391845665159    3.682802825497
 H    1.914790205733    1.170668334841    3.170898825497
CL   -2.108546007025    0.210516710630   -2.414672364064
