9

 N    2.524105981336   -0.525597277945    2.055465947599
 C    2.124843981336    0.096105722055    3.374225947599
 H    1.789528981336   -0.408875277945    1.346657947599
 H    2.699849981336   -1.533253277945    2.152327947599
 H    3.381144981336   -0.099005277945    1.682446947599
 H    2.943827981336   -0.060191277945    4.084617947599
 H    1.209870981336   -0.397773277945    3.718798947599
 H    1.952094981336    1.164740722055    3.206894947599
CL   -2.142736976104    0.215949549247   -2.447663912139
