9

 N    2.561410756938   -0.531524890732    2.091462069701
 C    2.162148756938    0.090178109268    3.410222069701
 H    1.826833756938   -0.414802890732    1.382654069701
 H    2.737154756938   -1.539180890732    2.188324069701
 H    3.418449756938   -0.104932890732    1.718443069701
 H    2.981132756938   -0.066118890732    4.120614069701
 H    1.247175756938   -0.403700890732    3.754795069701
 H    1.989399756938    1.158813109268    3.242891069701
CL   -2.176927945182    0.221382387864   -2.480655460214
