9

 N    2.636020308143   -0.543380116305    2.163454313905
 C    2.236758308143    0.078322883695    3.482214313905
 H    1.901443308143   -0.426658116305    1.454646313905
 H    2.811764308143   -1.551036116305    2.260316313905
 H    3.493059308143   -0.116788116305    1.790435313905
 H    3.055742308143   -0.077974116305    4.192606313905
 H    1.321785308143   -0.415556116305    3.826787313905
 H    2.064009308143    1.146957883695    3.314883313905
CL   -2.245309883339    0.232248065098   -2.546638556364
