9

 N    2.710629859348   -0.555235341878    2.235446558109
 C    2.311367859348    0.066467658122    3.554206558109
 H    1.976052859348   -0.438513341878    1.526638558109
 H    2.886373859348   -1.562891341878    2.332308558109
 H    3.567668859348   -0.128643341878    1.862427558109
 H    3.130351859348   -0.089829341878    4.264598558109
 H    1.396394859348   -0.427411341878    3.898779558109
 H    2.138618859348    1.135102658122    3.386875558109
CL   -2.313691821495    0.243113742332   -2.612621652515
