9

 N    2.859848961758   -0.578945793024    2.379431046516
 C    2.460586961758    0.042757206976    3.698191046516
 H    2.125271961758   -0.462223793024    1.670623046516
 H    3.035592961758   -1.586601793024    2.476293046516
 H    3.716887961758   -0.152353793024    2.006412046516
 H    3.279570961758   -0.113539793024    4.408583046516
 H    1.545613961758   -0.451121793024    4.042764046516
 H    2.287837961758    1.111392206976    3.530860046516
CL   -2.450455697808    0.264845096800   -2.744587844815
