9

 N    2.934458512963   -0.590801018597    2.451423290720
 C    2.535196512963    0.030901981403    3.770183290720
 H    2.199881512963   -0.474079018597    1.742615290720
 H    3.110202512963   -1.598457018597    2.548285290720
 H    3.791497512963   -0.164209018597    2.078404290720
 H    3.354180512963   -0.125395018597    4.480575290720
 H    1.620223512963   -0.462977018597    4.114756290720
 H    2.362447512963    1.099536981403    3.602852290720
CL   -2.518837635965    0.275710774034   -2.810570940966
