9

 N    2.971763288565   -0.596728631383    2.487419412822
 C    2.572501288565    0.024974368617    3.806179412822
 H    2.237186288565   -0.480006631383    1.778611412822
 H    3.147507288565   -1.604384631383    2.584281412822
 H    3.828802288565   -0.170136631383    2.114400412822
 H    3.391485288565   -0.131322631383    4.516571412822
 H    1.657528288565   -0.468904631383    4.150752412822
 H    2.399752288565    1.093609368617    3.638848412822
CL   -2.553028605043    0.281143612651   -2.843562489041
