9

 N    3.009068064168   -0.602656244170    2.523415534924
 C    2.609806064168    0.019046755830    3.842175534924
 H    2.274491064168   -0.485934244170    1.814607534924
 H    3.184812064168   -1.610312244170    2.620277534924
 H    3.866107064168   -0.176064244170    2.150396534924
 H    3.428790064168   -0.137250244170    4.552567534924
 H    1.694833064168   -0.474832244170    4.186748534924
 H    2.437057064168    1.087681755830    3.674844534924
CL   -2.587219574121    0.286576451268   -2.876554037116
