9

 N    3.344811044590   -0.656004759248    2.847380633840
 C    2.945549044590   -0.034301759248    4.166140633840
 H    2.610234044590   -0.539282759248    2.138572633840
 H    3.520555044590   -1.663660759248    2.944242633840
 H    4.201850044590   -0.229412759248    2.474361633840
 H    3.764533044590   -0.190598759248    4.876532633840
 H    2.030576044590   -0.528180759248    4.510713633840
 H    2.772800044590    1.034333240752    3.998809633840
CL   -2.894938295826    0.335471998821   -3.173477969793
