9

 N    3.382115820192   -0.661932372035    2.883376755942
 C    2.982853820192   -0.040229372035    4.202136755942
 H    2.647538820192   -0.545210372035    2.174568755942
 H    3.557859820192   -1.669588372035    2.980238755942
 H    4.239154820192   -0.235340372035    2.510357755942
 H    3.801837820192   -0.196526372035    4.912528755942
 H    2.067880820192   -0.534108372035    4.546709755942
 H    2.810104820192    1.028405627965    4.034805755942
CL   -2.929129264904    0.340904837438   -3.206469517868
