9

 N    3.456725371397   -0.673787597608    2.955369000146
 C    3.057463371397   -0.052084597608    4.274129000146
 H    2.722148371397   -0.557065597608    2.246561000146
 H    3.632469371397   -1.681443597608    3.052231000146
 H    4.313764371397   -0.247195597608    2.582350000146
 H    3.876447371397   -0.208381597608    4.984521000146
 H    2.142490371397   -0.545963597608    4.618702000146
 H    2.884714371397    1.016550402392    4.106798000146
CL   -2.997511203060    0.351770514672   -3.272452614018
