9

 N    3.568639698205   -0.691570435967    3.063357366452
 C    3.169377698205   -0.069867435967    4.382117366452
 H    2.834062698205   -0.574848435967    2.354549366452
 H    3.744383698205   -1.699226435967    3.160219366452
 H    4.425678698205   -0.264978435967    2.690338366452
 H    3.988361698205   -0.226164435967    5.092509366452
 H    2.254404698205   -0.563746435967    4.726690366452
 H    2.996628698205    0.998767564033    4.214786366452
CL   -3.100084110295    0.368069030523   -3.371427258244
