9

 N    3.643249249410   -0.703425661540    3.135349610655
 C    3.243987249410   -0.081722661540    4.454109610655
 H    2.908672249410   -0.586703661540    2.426541610655
 H    3.818993249410   -1.711081661540    3.232211610655
 H    4.500288249410   -0.276833661540    2.762330610655
 H    4.062971249410   -0.238019661540    5.164501610655
 H    2.329014249410   -0.575601661540    4.798682610655
 H    3.071238249410    0.986912338460    4.286778610655
CL   -3.168466048452    0.378934707757   -3.437410354394
