9

 N    3.755163576217   -0.721208499900    3.243337976961
 C    3.355901576217   -0.099505499900    4.562097976961
 H    3.020586576217   -0.604486499900    2.534529976961
 H    3.930907576217   -1.728864499900    3.340199976961
 H    4.612202576217   -0.294616499900    2.870318976961
 H    4.174885576217   -0.255802499900    5.272489976961
 H    2.440928576217   -0.593384499900    4.906670976961
 H    3.183152576217    0.969129500100    4.394766976961
CL   -3.271038955686    0.395233223608   -3.536384998620
