9

 N    3.829773127422   -0.733063725473    3.315330221165
 C    3.430511127422   -0.111360725473    4.634090221165
 H    3.095196127422   -0.616341725473    2.606522221165
 H    4.005517127422   -1.740719725473    3.412192221165
 H    4.686812127422   -0.306471725473    2.942311221165
 H    4.249495127422   -0.267657725473    5.344482221165
 H    2.515538127422   -0.605239725473    4.978663221165
 H    3.257762127422    0.957274274527    4.466759221165
CL   -3.339420893843    0.406098900842   -3.602368094770
