9

 N    4.053601781037   -0.768629402192    3.531306953776
 C    3.654339781037   -0.146926402192    4.850066953776
 H    3.319024781037   -0.651907402192    2.822498953776
 H    4.229345781037   -1.776285402192    3.628168953776
 H    4.910640781037   -0.342037402192    3.158287953776
 H    4.473323781037   -0.303223402192    5.560458953776
 H    2.739366781037   -0.640805402192    5.194639953776
 H    3.481590781037    0.921708597808    4.682735953776
CL   -3.544566708313    0.438695932544   -3.800317383221
