9

 N    4.090906556639   -0.774557014978    3.567303075878
 C    3.691644556639   -0.152854014978    4.886063075878
 H    3.356329556639   -0.657835014978    2.858495075878
 H    4.266650556639   -1.782213014978    3.664165075878
 H    4.947945556639   -0.347965014978    3.194284075878
 H    4.510628556639   -0.309151014978    5.596455075878
 H    2.776671556639   -0.646733014978    5.230636075878
 H    3.518895556639    0.915780985022    4.718732075878
CL   -3.578757677391    0.444128771161   -3.833308931297
