14

 N    2.724529011267    1.484695585551    0.524901592614
 C    1.639082068364    2.307454555379    0.528043463835
 H    1.830602908246    3.382511527878    0.525538865293
 C    2.642665290585    0.065425123825    0.525919261498
 O    3.686408537903   -0.587816766236    0.523438420186
 N    1.368827201904   -0.476714507768    0.536532495628
 C    0.311141089091    0.324637523107    0.534039450800
 N   -0.920852027365   -0.279161505973    0.488633627591
 H   -0.929786495686   -1.278855392484    0.658204236156
 H   -1.739429771568    0.247266813427    0.763533752388
 C    0.379723087525    1.766014362302    0.530556017134
 H   -0.508800628160    2.397331953546    0.521074063107
 H    3.668469134194    1.859343797993    0.521595696386
CS   -1.244487371846   -0.459163387657   -0.440268674264
