14

 N    2.777424844657    1.514115578472    0.676723889632
 C    1.691977901754    2.336874548300    0.679865760853
 H    1.883498741636    3.411931520799    0.677361162311
 C    2.695561123975    0.094845116746    0.677741558516
 O    3.739304371293   -0.558396773315    0.675260717204
 N    1.421723035294   -0.447294514847    0.688354792646
 C    0.364036922481    0.354057516028    0.685861747818
 N   -0.867956193975   -0.249741513052    0.640455924609
 H   -0.876890662296   -1.249435399563    0.810026533174
 H   -1.686533938178    0.276686806348    0.915356049406
 C    0.432618920915    1.795434355223    0.682378314152
 H   -0.455904794770    2.426751946467    0.672896360125
 H    3.721364967584    1.888763790914    0.673417993404
CS   -1.288682141800   -0.483743959242   -0.567117067804
