14

 N    2.812688733585    1.533728907086    0.777938754310
 C    1.727241790682    2.356487876914    0.781080625531
 H    1.918762630564    3.431544849413    0.778576026989
 C    2.730825012903    0.114458445360    0.778956423194
 O    3.774568260221   -0.538783444701    0.776475581882
 N    1.456986924222   -0.427681186233    0.789569657324
 C    0.399300811409    0.373670844642    0.787076612496
 N   -0.832692305047   -0.230128184438    0.741670789287
 H   -0.841626773368   -1.229822070949    0.911241397852
 H   -1.651270049250    0.296300134962    1.016570914084
 C    0.467882809843    1.815047683837    0.783593178830
 H   -0.420640905842    2.446365275081    0.774111224803
 H    3.756628856512    1.908377119528    0.774632858082
CS   -1.318145321769   -0.500131006965   -0.651682663496
