14

 N    2.830320678048    1.543535571393    0.828546186649
 C    1.744873735145    2.366294541221    0.831688057870
 H    1.936394575027    3.441351513720    0.829183459328
 C    2.748456957366    0.124265109667    0.829563855533
 O    3.792200204684   -0.528976780394    0.827083014221
 N    1.474618868685   -0.417874521926    0.840177089663
 C    0.416932755872    0.383477508949    0.837684044835
 N   -0.815060360584   -0.220321520131    0.792278221626
 H   -0.823994828905   -1.220015406642    0.961848830191
 H   -1.633638104787    0.306106799269    1.067178346423
 C    0.485514754306    1.824854348144    0.834200611169
 H   -0.403008961379    2.456171939388    0.824718657142
 H    3.774260800975    1.918183783835    0.825240290421
CS   -1.332876911753   -0.508324530826   -0.693965461343
