14

 N    2.918480400366    1.592568892928    1.081583348345
 C    1.833033457463    2.415327862756    1.084725219566
 H    2.024554297345    3.490384835255    1.082220621024
 C    2.836616679684    0.173298431202    1.082601017229
 O    3.880359927002   -0.479943458859    1.080120175917
 N    1.562778591003   -0.368841200391    1.093214251359
 C    0.505092478190    0.432510830484    1.090721206531
 N   -0.726900638266   -0.171288198596    1.045315383322
 H   -0.735835106587   -1.170982085107    1.214885991887
 H   -1.545478382469    0.355140120804    1.320215508119
 C    0.573674476624    1.873887669679    1.087237772865
 H   -0.314849239061    2.505205260923    1.077755818838
 H    3.862420523293    1.967217105370    1.078277452117
CS   -1.406534861676   -0.549292150134   -0.905379450575
