14

 N    2.936112344829    1.602375557235    1.132190780684
 C    1.850665401926    2.425134527063    1.135332651905
 H    2.042186241808    3.500191499562    1.132828053363
 C    2.854248624147    0.183105095509    1.133208449568
 O    3.897991871465   -0.470136794552    1.130727608256
 N    1.580410535466   -0.359034536084    1.143821683698
 C    0.522724422653    0.442317494791    1.141328638870
 N   -0.709268693803   -0.161481534289    1.095922815661
 H   -0.718203162124   -1.161175420800    1.265493424226
 H   -1.527846438006    0.364946785111    1.370822940458
 C    0.591306421087    1.883694333986    1.137845205204
 H   -0.297217294598    2.515011925230    1.128363251177
 H    3.880052467756    1.977023769677    1.128884884456
CS   -1.421266451661   -0.557485673995   -0.947662248422
