14

 N    2.953744289293    1.612182221542    1.182798213023
 C    1.868297346390    2.434941191370    1.185940084244
 H    2.059818186272    3.509998163869    1.183435485702
 C    2.871880568611    0.192911759816    1.183815881907
 O    3.915623815929   -0.460330130245    1.181335040595
 N    1.598042479930   -0.349227871777    1.194429116037
 C    0.540356367117    0.452124159098    1.191936071209
 N   -0.691636749339   -0.151674869982    1.146530248000
 H   -0.700571217660   -1.151368756493    1.316100856565
 H   -1.510214493542    0.374753449418    1.421430372797
 C    0.608938365551    1.893500998293    1.188452637543
 H   -0.279585350134    2.524818589537    1.178970683516
 H    3.897684412220    1.986830433984    1.179492316795
CS   -1.435998041645   -0.565679197857   -0.989945046268
