14

 N    2.989008178220    1.631795550156    1.284013077701
 C    1.903561235317    2.454554519984    1.287154948922
 H    2.095082075199    3.529611492483    1.284650350380
 C    2.907144457538    0.212525088430    1.285030746585
 O    3.950887704856   -0.440716801631    1.282549905273
 N    1.633306368857   -0.329614543163    1.295643980715
 C    0.575620256044    0.471737487712    1.293150935887
 N   -0.656372860412   -0.132061541368    1.247745112678
 H   -0.665307328733   -1.131755427879    1.417315721243
 H   -1.474950604615    0.394366778032    1.522645237475
 C    0.644202254478    1.913114326907    1.289667502221
 H   -0.244321461207    2.544431918151    1.280185548194
 H    3.932948301147    2.006443762598    1.280707181473
CS   -1.465461221614   -0.582066245580   -1.074510641961
