14

 N    3.024272067147    1.651408878770    1.385227942380
 C    1.938825124244    2.474167848598    1.388369813601
 H    2.130345964126    3.549224821097    1.385865215059
 C    2.942408346465    0.232138417044    1.386245611264
 O    3.986151593783   -0.421103473017    1.383764769952
 N    1.668570257784   -0.310001214549    1.396858845394
 C    0.610884144971    0.491350816326    1.394365800566
 N   -0.621108971485   -0.112448212754    1.348959977357
 H   -0.630043439806   -1.112142099265    1.518530585922
 H   -1.439686715688    0.413980106646    1.623860102154
 C    0.679466143405    1.932727655521    1.390882366900
 H   -0.209057572280    2.564045246765    1.381400412873
 H    3.968212190074    2.026057091212    1.381922046152
CS   -1.494924401583   -0.598453293303   -1.159076237654
