14

 N    3.094799845001    1.690635535997    1.587657671736
 C    2.009352902098    2.513394505825    1.590799542957
 H    2.200873741980    3.588451478324    1.588294944415
 C    3.012936124319    0.271365074271    1.588675340620
 O    4.056679371637   -0.381876815790    1.586194499308
 N    1.739098035638   -0.270774557322    1.599288574750
 C    0.681411922825    0.530577473553    1.596795529922
 N   -0.550581193631   -0.073221555527    1.551389706713
 H   -0.559515661952   -1.072915442038    1.720960315278
 H   -1.369158937834    0.453206763873    1.826289831510
 C    0.749993921259    1.971954312748    1.593312096256
 H   -0.138529794426    2.603271903992    1.583830142229
 H    4.038739967928    2.065283748439    1.584351775508
CS   -1.553850761522   -0.631227388749   -1.328207429039
