14

 N    3.130063733928    1.710248864611    1.688872536414
 C    2.044616791025    2.533007834439    1.692014407635
 H    2.236137630907    3.608064806938    1.689509809093
 C    3.048200013246    0.290978402885    1.689890205298
 O    4.091943260564   -0.362263487176    1.687409363986
 N    1.774361924565   -0.251161228708    1.700503439428
 C    0.716675811752    0.550190802167    1.698010394600
 N   -0.515317304704   -0.053608226913    1.652604571391
 H   -0.524251773025   -1.053302113424    1.822175179956
 H   -1.333895048907    0.472820092487    1.927504696188
 C    0.785257810186    1.991567641362    1.694526960934
 H   -0.103265905499    2.622885232606    1.685045006907
 H    4.074003856855    2.084897077053    1.685566640186
CS   -1.583313941491   -0.647614436472   -1.412773024732
