14

 N    3.147695678392    1.720055528918    1.739479968754
 C    2.062248735489    2.542814498746    1.742621839975
 H    2.253769575371    3.617871471245    1.740117241433
 C    3.065831957710    0.300785067192    1.740497637638
 O    4.109575205028   -0.352456822869    1.738016796326
 N    1.791993869029   -0.241354564401    1.751110871768
 C    0.734307756216    0.559997466474    1.748617826940
 N   -0.497685360240   -0.043801562606    1.703212003731
 H   -0.506619828561   -1.043495449117    1.872782612296
 H   -1.316263104443    0.482626756794    1.978112128528
 C    0.802889754650    2.001374305669    1.745134393274
 H   -0.085633961035    2.632691896913    1.735652439247
 H    4.091635801319    2.094703741360    1.736174072526
CS   -1.598045531475   -0.655807960333   -1.455055822579
