14

 N    3.165327622855    1.729862193225    1.790087401093
 C    2.079880679952    2.552621163053    1.793229272314
 H    2.271401519834    3.627678135552    1.790724673772
 C    3.083463902173    0.310591731499    1.791105069977
 O    4.127207149491   -0.342650158562    1.788624228665
 N    1.809625813492   -0.231547900094    1.801718304107
 C    0.751939700679    0.569804130781    1.799225259279
 N   -0.480053415777   -0.033994898299    1.753819436070
 H   -0.488987884098   -1.033688784810    1.923390044635
 H   -1.298631159980    0.492433421101    2.028719560867
 C    0.820521699113    2.011180969976    1.795741825613
 H   -0.068002016572    2.642498561220    1.786259871586
 H    4.109267745782    2.104510405667    1.786781504865
CS   -1.612777121460   -0.664001484195   -1.497338620425
