14

 N    3.200591511782    1.749475521839    1.891302265771
 C    2.115144568879    2.572234491667    1.894444136992
 H    2.306665408761    3.647291464166    1.891939538450
 C    3.118727791100    0.330205060113    1.892319934655
 O    4.162471038418   -0.323036829948    1.889839093343
 N    1.844889702419   -0.211934571480    1.902933168785
 C    0.787203589606    0.589417459395    1.900440123957
 N   -0.444789526850   -0.014381569685    1.855034300748
 H   -0.453723995171   -1.014075456196    2.024604909313
 H   -1.263367271053    0.512046749715    2.129934425545
 C    0.855785588040    2.030794298590    1.896956690291
 H   -0.032738127645    2.662111889834    1.887474736264
 H    4.144531634709    2.124123734281    1.887996369543
CS   -1.642240301429   -0.680388531918   -1.581904216118
