14

 N    3.253487345173    1.778895514760    2.043124562788
 C    2.168040402270    2.601654484588    2.046266434009
 H    2.359561242152    3.676711457087    2.043761835467
 C    3.171623624491    0.359625053034    2.044142231672
 O    4.215366871809   -0.293616837027    2.041661390360
 N    1.897785535810   -0.182514578559    2.054755465802
 C    0.840099422997    0.618837452316    2.052262420974
 N   -0.391893693459    0.015038423236    2.006856597765
 H   -0.400828161780   -0.984655463275    2.176427206330
 H   -1.210471437662    0.541466742636    2.281756722562
 C    0.908681421431    2.060214291511    2.048778987308
 H    0.020157705746    2.691531882755    2.039297033281
 H    4.197427468100    2.153543727202    2.039818666560
CS   -1.686435071383   -0.704969103502   -1.708752609657
