14

 N    3.341647067490    1.827928836295    2.296161724484
 C    2.256200124587    2.650687806123    2.299303595705
 H    2.447720964469    3.725744778622    2.296798997163
 C    3.259783346808    0.408658374569    2.297179393368
 O    4.303526594126   -0.244583515492    2.294698552056
 N    1.985945258127   -0.133481257024    2.307792627498
 C    0.928259145314    0.667870773851    2.305299582670
 N   -0.303733971142    0.064071744771    2.259893759461
 H   -0.312668439463   -0.935622141740    2.429464368026
 H   -1.122311715345    0.590500064171    2.534793884258
 C    0.996841143748    2.109247613046    2.301816149004
 H    0.108317428063    2.740565204290    2.292334194977
 H    4.285587190417    2.202577048737    2.292855828256
CS   -1.760093021305   -0.745936722810   -1.920166598890
