14

 N    3.447438734272    1.886768822137    2.599806318519
 C    2.361991791369    2.709527791965    2.602948189740
 H    2.553512631251    3.784584764464    2.600443591198
 C    3.365575013590    0.467498360411    2.600823987403
 O    4.409318260908   -0.185743529650    2.598343146091
 N    2.091736924909   -0.074641271182    2.611437221533
 C    1.034050812096    0.726710759693    2.608944176705
 N   -0.197942304360    0.122911730613    2.563538353496
 H   -0.206876772681   -0.876782155898    2.733108962061
 H   -1.016520048563    0.649340050013    2.838438478293
 C    1.102632810530    2.168087598888    2.605460743039
 H    0.214109094845    2.799405190132    2.595978789012
 H    4.391378857199    2.261417034579    2.596500422291
CS   -1.848482561213   -0.795097865979   -2.173863385968
