14

 N    3.535598456589    1.935802143672    2.852843480214
 C    2.450151513686    2.758561113500    2.855985351435
 H    2.641672353568    3.833618085999    2.853480752893
 C    3.453734735907    0.516531681946    2.853861149098
 O    4.497477983225   -0.136710208115    2.851380307786
 N    2.179896647226   -0.025607949647    2.864474383228
 C    1.122210534413    0.775744081228    2.861981338400
 N   -0.109782582043    0.171945052148    2.816575515191
 H   -0.118717050364   -0.827748834363    2.986146123756
 H   -0.928360326246    0.698373371548    3.091475639988
 C    1.190792532847    2.217120920423    2.858497904734
 H    0.302268817162    2.848438511667    2.849015950707
 H    4.479538579516    2.310450356114    2.849537583986
CS   -1.922140511135   -0.836065485286   -2.385277375200
