14

 N    3.570862345516    1.955415472286    2.954058344893
 C    2.485415402613    2.778174442114    2.957200216114
 H    2.676936242495    3.853231414613    2.954695617572
 C    3.488998624834    0.536145010560    2.955076013777
 O    4.532741872152   -0.117096879501    2.952595172465
 N    2.215160536153   -0.005994621033    2.965689247907
 C    1.157474423340    0.795357409842    2.963196203079
 N   -0.074518693116    0.191558380762    2.917790379870
 H   -0.083453161437   -0.808135505749    3.087360988435
 H   -0.893096437319    0.717986700162    3.192690504667
 C    1.226056421774    2.236734249037    2.959712769413
 H    0.337532706089    2.868051840281    2.950230815386
 H    4.514802468443    2.330063684728    2.950752448665
CS   -1.951603691105   -0.852452533009   -2.469842970893
