14

 N    3.588494289980    1.965222136592    3.004665777232
 C    2.503047347077    2.787981106420    3.007807648453
 H    2.694568186959    3.863038078919    3.005303049911
 C    3.506630569298    0.545951674866    3.005683446116
 O    4.550373816616   -0.107290215195    3.003202604804
 N    2.232792480617    0.003812043273    3.016296680246
 C    1.175106367804    0.805164074148    3.013803635418
 N   -0.056886748652    0.201365045068    2.968397812209
 H   -0.065821216973   -0.798328841443    3.137968420774
 H   -0.875464492855    0.727793364468    3.243297937006
 C    1.243688366238    2.246540913343    3.010320201752
 H    0.355164650553    2.877858504587    3.000838247725
 H    4.532434412907    2.339870349034    3.001359881004
CS   -1.966335281089   -0.860646056870   -2.512125768740
