14

 N    3.606126234443    1.975028800899    3.055273209571
 C    2.520679291540    2.797787770727    3.058415080792
 H    2.712200131422    3.872844743226    3.055910482250
 C    3.524262513761    0.555758339173    3.056290878455
 O    4.568005761079   -0.097483550888    3.053810037143
 N    2.250424425080    0.013618707580    3.066904112585
 C    1.192738312267    0.814970738455    3.064411067757
 N   -0.039254804189    0.211171709375    3.019005244548
 H   -0.048189272510   -0.788522177136    3.188575853113
 H   -0.857832548392    0.737600028775    3.293905369345
 C    1.261320310701    2.256347577650    3.060927634091
 H    0.372796595016    2.887665168894    3.051445680064
 H    4.550066357370    2.349677013341    3.051967313343
CS   -1.981066871074   -0.868839580732   -2.554408566586
