14

 N    3.623758178907    1.984835465206    3.105880641910
 C    2.538311236004    2.807594435034    3.109022513131
 H    2.729832075886    3.882651407533    3.106517914589
 C    3.541894458225    0.565565003480    3.106898310794
 O    4.585637705543   -0.087676886581    3.104417469482
 N    2.268056369544    0.023425371887    3.117511544924
 C    1.210370256731    0.824777402762    3.115018500096
 N   -0.021622859725    0.220978373682    3.069612676887
 H   -0.030557328046   -0.778715512829    3.239183285452
 H   -0.840200603928    0.747406693082    3.344512801684
 C    1.278952255165    2.266154241957    3.111535066430
 H    0.390428539480    2.897471833201    3.102053112403
 H    4.567698301834    2.359483677648    3.102574745682
CS   -1.995798461058   -0.877033104593   -2.596691364433
