14

 N    3.694285956761    2.024062122434    3.308310371267
 C    2.608839013858    2.846821092262    3.311452242488
 H    2.800359853740    3.921878064761    3.308947643946
 C    3.612422236079    0.604791660708    3.309328040151
 O    4.656165483397   -0.048450229353    3.306847198839
 N    2.338584147398    0.062652029115    3.319941274281
 C    1.280898034585    0.864004059990    3.317448229453
 N    0.048904918129    0.260205030910    3.272042406244
 H    0.039970449808   -0.739488855601    3.441613014809
 H   -0.769672826074    0.786633350310    3.546942531041
 C    1.349480033019    2.305380899185    3.313964795787
 H    0.460956317334    2.936698490429    3.304482841760
 H    4.638226079688    2.398710334876    3.305004475039
CS   -2.054724820996   -0.909807200039   -2.765822555818
