14

 N    3.711917901225    2.033868786741    3.358917803606
 C    2.626470958322    2.856627756569    3.362059674827
 H    2.817991798204    3.931684729068    3.359555076285
 C    3.630054180543    0.614598325015    3.359935472490
 O    4.673797427861   -0.038643565046    3.357454631178
 N    2.356216091862    0.072458693422    3.370548706620
 C    1.298529979049    0.873810724297    3.368055661792
 N    0.066536862593    0.270011695217    3.322649838583
 H    0.057602394272   -0.729682191294    3.492220447148
 H   -0.752040881610    0.796440014617    3.597549963380
 C    1.367111977483    2.315187563492    3.364572228126
 H    0.478588261798    2.946505154736    3.355090274099
 H    4.655858024152    2.408516999183    3.355611907378
CS   -2.069456410981   -0.918000723901   -2.808105353665
