14

 N    3.729549845688    2.043675451048    3.409525235945
 C    2.644102902785    2.866434420876    3.412667107166
 H    2.835623742667    3.941491393375    3.410162508624
 C    3.647686125006    0.624404989322    3.410542904829
 O    4.691429372324   -0.028836900739    3.408062063517
 N    2.373848036325    0.082265357729    3.421156138959
 C    1.316161923512    0.883617388604    3.418663094131
 N    0.084168807056    0.279818359524    3.373257270922
 H    0.075234338735   -0.719875526987    3.542827879487
 H   -0.734408937147    0.806246678924    3.648157395719
 C    1.384743921946    2.324994227799    3.415179660465
 H    0.496220206261    2.956311819043    3.405697706438
 H    4.673489968615    2.418323663490    3.406219339717
CS   -2.084188000966   -0.926194247762   -2.850388151511
