14

 N    3.747181790152    2.053482115355    3.460132668284
 C    2.661734847249    2.876241085183    3.463274539505
 H    2.853255687131    3.951298057682    3.460769940963
 C    3.665318069470    0.634211653629    3.461150337168
 O    4.709061316788   -0.019030236432    3.458669495856
 N    2.391479980789    0.092072022036    3.471763571298
 C    1.333793867976    0.893424052911    3.469270526470
 N    0.101800751520    0.289625023831    3.423864703261
 H    0.092866283199   -0.710068862680    3.593435311826
 H   -0.716776992683    0.816053343231    3.698764828058
 C    1.402375866410    2.334800892106    3.465787092804
 H    0.513852150725    2.966118483350    3.456305138777
 H    4.691121913079    2.428130327797    3.456826772056
CS   -2.098919590950   -0.934387771624   -2.892670949358
