14

 N    3.764813734615    2.063288779662    3.510740100623
 C    2.679366791712    2.886047749490    3.513881971844
 H    2.870887631594    3.961104721989    3.511377373302
 C    3.682950013933    0.644018317936    3.511757769507
 O    4.726693261251   -0.009223572125    3.509276928195
 N    2.409111925252    0.101878686343    3.522371003637
 C    1.351425812439    0.903230717218    3.519877958809
 N    0.119432695983    0.299431688138    3.474472135600
 H    0.110498227662   -0.700262198373    3.644042744165
 H   -0.699145048220    0.825860007538    3.749372260397
 C    1.420007810873    2.344607556413    3.516394525143
 H    0.531484095188    2.975925147657    3.506912571116
 H    4.708753857542    2.437936992104    3.507434204395
CS   -2.113651180935   -0.942581295485   -2.934953747204
