14

 N    3.782445679079    2.073095443969    3.561347532962
 C    2.696998736176    2.895854413797    3.564489404183
 H    2.888519576058    3.970911386296    3.561984805641
 C    3.700581958397    0.653824982243    3.562365201846
 O    4.744325205715    0.000583092182    3.559884360534
 N    2.426743869716    0.111685350650    3.572978435976
 C    1.369057756903    0.913037381525    3.570485391148
 N    0.137064640447    0.309238352445    3.525079567939
 H    0.128130172126   -0.690455534066    3.694650176504
 H   -0.681513103756    0.835666671845    3.799979692736
 C    1.437639755337    2.354414220720    3.567001957482
 H    0.549116039652    2.985731811964    3.557520003455
 H    4.726385802006    2.447743656411    3.558041636734
CS   -2.128382770919   -0.950774819347   -2.977236545051
