14

 N    3.817709568006    2.092708772583    3.662562397640
 C    2.732262625103    2.915467742411    3.665704268861
 H    2.923783464985    3.990524714910    3.663199670319
 C    3.735845847324    0.673438310857    3.663580066524
 O    4.779589094642    0.020196420796    3.661099225212
 N    2.462007758643    0.131298679264    3.674193300654
 C    1.404321645830    0.932650710139    3.671700255826
 N    0.172328529374    0.328851681059    3.626294432617
 H    0.163394061053   -0.670842205452    3.795865041182
 H   -0.646249214829    0.855280000459    3.901194557414
 C    1.472903644264    2.374027549334    3.668216822160
 H    0.584379928579    3.005345140578    3.658734868133
 H    4.761649690933    2.467356985025    3.659256501412
CS   -2.157845950888   -0.967161867070   -3.061802140743
