14

 N    3.852973456933    2.112322101197    3.763777262319
 C    2.767526514030    2.935081071025    3.766919133540
 H    2.959047353912    4.010138043524    3.764414534998
 C    3.771109736251    0.693051639471    3.764794931203
 O    4.814852983569    0.039809749410    3.762314089891
 N    2.497271647570    0.150912007878    3.775408165333
 C    1.439585534757    0.952264038753    3.772915120505
 N    0.207592418301    0.348465009673    3.727509297296
 H    0.198657949980   -0.651228876838    3.897079905861
 H   -0.610985325902    0.874893329073    4.002409422093
 C    1.508167533191    2.393640877948    3.769431686839
 H    0.619643817506    3.024958469192    3.759949732812
 H    4.796913579860    2.486970313639    3.760471366091
CS   -2.187309130857   -0.983548914793   -3.146367736436
