14

 N    3.870605401396    2.122128765504    3.814384694658
 C    2.785158458493    2.944887735332    3.817526565879
 H    2.976679298375    4.019944707831    3.815021967337
 C    3.788741680714    0.702858303778    3.815402363542
 O    4.832484928032    0.049616413717    3.812921522230
 N    2.514903592033    0.160718672185    3.826015597672
 C    1.457217479220    0.962070703060    3.823522552844
 N    0.225224362764    0.358271673980    3.778116729635
 H    0.216289894443   -0.641422212531    3.947687338200
 H   -0.593353381439    0.884699993380    4.053016854432
 C    1.525799477654    2.403447542255    3.820039119178
 H    0.637275761969    3.034765133499    3.810557165151
 H    4.814545524323    2.496776977946    3.811078798430
CS   -2.202040720842   -0.991742438654   -3.188650534283
