14

 N    3.905869290323    2.141742094118    3.915599559336
 C    2.820422347420    2.964501063946    3.918741430557
 H    3.011943187302    4.039558036445    3.916236832015
 C    3.824005569641    0.722471632392    3.916617228220
 O    4.867748816959    0.069229742331    3.914136386908
 N    2.550167480960    0.180332000799    3.927230462350
 C    1.492481368147    0.981684031674    3.924737417522
 N    0.260488251691    0.377885002594    3.879331594313
 H    0.251553783370   -0.621808883917    4.048902202878
 H   -0.558089492512    0.904313321994    4.154231719110
 C    1.561063366581    2.423060870869    3.921253983856
 H    0.672539650896    3.054378462113    3.911772029829
 H    4.849809413250    2.516390306560    3.912293663108
CS   -2.231503900811   -1.008129486377   -3.273216129976
