14

 N    3.958765123714    2.171162087039    4.067421856353
 C    2.873318180811    2.993921056867    4.070563727574
 H    3.064839020693    4.068978029366    4.068059129032
 C    3.876901403032    0.751891625313    4.068439525237
 O    4.920644650350    0.098649735252    4.065958683925
 N    2.603063314351    0.209751993720    4.079052759367
 C    1.545377201538    1.011104024595    4.076559714539
 N    0.313384085082    0.407304995515    4.031153891330
 H    0.304449616761   -0.592388890996    4.200724499895
 H   -0.505193659121    0.933733314915    4.306054016127
 C    1.613959199972    2.452480863790    4.073076280873
 H    0.725435484287    3.083798455034    4.063594326846
 H    4.902705246641    2.545810299481    4.064115960125
CS   -2.275698670765   -1.032710057962   -3.400064523515
