14

 N    3.976397068178    2.180968751346    4.118029288693
 C    2.890950125275    3.003727721174    4.121171159914
 H    3.082470965157    4.078784693673    4.118666561372
 C    3.894533347496    0.761698289620    4.119046957577
 O    4.938276594814    0.108456399559    4.116566116265
 N    2.620695258815    0.219558658027    4.129660191707
 C    1.563009146002    1.020910688902    4.127167146879
 N    0.331016029546    0.417111659822    4.081761323670
 H    0.322081561225   -0.582582226689    4.251331932235
 H   -0.487561714657    0.943539979222    4.356661448467
 C    1.631591144436    2.462287528097    4.123683713213
 H    0.743067428751    3.093605119341    4.114201759186
 H    4.920337191105    2.555616963788    4.114723392465
CS   -2.290430260749   -1.040903581823   -3.442347321361
