14

 N    4.011660957105    2.200582079960    4.219244153371
 C    2.926214014202    3.023341049788    4.222386024592
 H    3.117734854084    4.098398022287    4.219881426050
 C    3.929797236423    0.781311618234    4.220261822255
 O    4.973540483741    0.128069728173    4.217780980943
 N    2.655959147742    0.239171986641    4.230875056385
 C    1.598273034929    1.040524017516    4.228382011557
 N    0.366279918473    0.436724988436    4.182976188348
 H    0.357345450152   -0.562968898075    4.352546796913
 H   -0.452297825730    0.963153307836    4.457876313145
 C    1.666855033363    2.481900856711    4.224898577891
 H    0.778331317678    3.113218447955    4.215416623864
 H    4.955601080032    2.575230292402    4.215938257143
CS   -2.319893440718   -1.057290629546   -3.526912917054
