14

 N    4.029292901568    2.210388744267    4.269851585710
 C    2.943845958665    3.033147714095    4.272993456931
 H    3.135366798547    4.108204686594    4.270488858389
 C    3.947429180886    0.791118282541    4.270869254594
 O    4.991172428204    0.137876392480    4.268388413282
 N    2.673591092205    0.248978650948    4.281482488724
 C    1.615904979392    1.050330681823    4.278989443896
 N    0.383911862936    0.446531652743    4.233583620687
 H    0.374977394615   -0.553162233768    4.403154229252
 H   -0.434665881267    0.972959972143    4.508483745484
 C    1.684486977826    2.491707521018    4.275506010230
 H    0.795963262141    3.123025112262    4.266024056203
 H    4.973233024495    2.585036956709    4.266545689482
CS   -2.334625030703   -1.065484153408   -3.569195714901
