14

 N    4.099820679422    2.249615401495    4.472281315066
 C    3.014373736519    3.072374371323    4.475423186287
 H    3.205894576401    4.147431343822    4.472918587745
 C    4.017956958740    0.830344939769    4.473298983950
 O    5.061700206058    0.177103049708    4.470818142638
 N    2.744118870059    0.288205308176    4.483912218080
 C    1.686432757246    1.089557339051    4.481419173252
 N    0.454439640790    0.485758309971    4.436013350043
 H    0.445505172469   -0.513935576540    4.605583958608
 H   -0.364138103413    1.012186629371    4.710913474840
 C    1.755014755680    2.530934178246    4.477935739586
 H    0.866491039995    3.162251769490    4.468453785559
 H    5.043760802349    2.624263613937    4.468975418838
CS   -2.393551390641   -1.098258248854   -3.738326906286
