14

 N    4.135084568349    2.269228730108    4.573496179745
 C    3.049637625446    3.091987699936    4.576638050966
 H    3.241158465328    4.167044672435    4.574133452424
 C    4.053220847667    0.849958268382    4.574513848629
 O    5.096964094985    0.196716378321    4.572033007317
 N    2.779382758986    0.307818636789    4.585127082759
 C    1.721696646173    1.109170667664    4.582634037931
 N    0.489703529717    0.505371638584    4.537228214722
 H    0.480769061396   -0.494322247927    4.706798823287
 H   -0.328874214486    1.031799957984    4.812128339519
 C    1.790278644607    2.550547506859    4.579150604265
 H    0.901754928922    3.181865098103    4.569668650238
 H    5.079024691276    2.643876942550    4.570190283517
CS   -2.423014570610   -1.114645296577   -3.822892501979
