14

 N    4.152716512813    2.279035394415    4.624103612084
 C    3.067269569910    3.101794364243    4.627245483305
 H    3.258790409792    4.176851336742    4.624740884763
 C    4.070852792131    0.859764932689    4.625121280968
 O    5.114596039449    0.206523042628    4.622640439656
 N    2.797014703450    0.317625301096    4.635734515098
 C    1.739328590637    1.118977331971    4.633241470270
 N    0.507335474181    0.515178302891    4.587835647061
 H    0.498401005860   -0.484515583620    4.757406255626
 H   -0.311242270022    1.041606622291    4.862735771858
 C    1.807910589071    2.560354171166    4.629758036604
 H    0.919386873386    3.191671762410    4.620276082577
 H    5.096656635740    2.653683606857    4.620797715856
CS   -2.437746160595   -1.122838820438   -3.865175299826
