14

 N    4.276140124058    2.347682044564    4.978355638458
 C    3.190693181155    3.170441014392    4.981497509679
 H    3.382214021037    4.245497986891    4.978992911137
 C    4.194276403376    0.928411582838    4.979373307342
 O    5.238019650694    0.275169692777    4.976892466030
 N    2.920438314695    0.386271951245    4.989986541472
 C    1.862752201882    1.187623982120    4.987493496644
 N    0.630759085426    0.583824953040    4.942087673435
 H    0.621824617105   -0.415868933471    5.111658282000
 H   -0.187818658777    1.110253272440    5.216987798232
 C    1.931334200316    2.629000821315    4.984010062978
 H    1.042810484631    3.260318412559    4.974528108951
 H    5.220080246985    2.722330257006    4.975049742230
CS   -2.540867290487   -1.180193487469   -4.161154884751
