17

 N   -1.591214545683   -1.619468189850   -0.003946138601
 C   -0.381026478839   -0.964261986174    0.000015485367
 N    0.852385935464   -1.562939680636    0.012053770272
 C    1.822809135520   -0.672763539025    0.000181313299
 N    1.619732298107    0.688874594489   -0.006653847043
 H    2.423559423358    1.308835134244   -0.088641869465
 N    3.148263889757   -1.091438260705   -0.078165989936
 H    3.802800095089   -0.559635036305    0.489474786794
 H    3.227068977148   -2.092138404640    0.083417348053
 C    0.360458555790    1.374908298020    0.006299939634
 O    0.332878186685    2.603081382797    0.002211811206
 C   -0.712326570186    0.401214908746    0.012501137574
 N   -2.083399871955    0.587545954059    0.012425952858
 C   -2.576923366466   -0.651057059986    0.002095853193
 H   -3.634421279734   -0.905203681818   -0.000850791233
 H   -1.716311542214   -2.626051275082   -0.012605689632
LI   -2.688394074020    1.623852442192    0.019558842948
