17

 N   -1.573312078117   -1.650133679254   -0.004157208944
 C   -0.363124011273   -0.994927475578   -0.000195584976
 N    0.870288403030   -1.593605170040    0.011842699929
 C    1.840711603086   -0.703429028429   -0.000029757044
 N    1.637634765673    0.658209105085   -0.006864917386
 H    2.441461890924    1.278169644840   -0.088852939808
 N    3.166166357323   -1.122103750109   -0.078377060279
 H    3.820702562655   -0.590300525709    0.489263716451
 H    3.244971444714   -2.122803894044    0.083206277710
 C    0.378361023356    1.344242808616    0.006088869291
 O    0.350780654251    2.572415893393    0.002000740863
 C   -0.694424102620    0.370549419342    0.012290067231
 N   -2.065497404389    0.556880464655    0.012214882515
 C   -2.559020898900   -0.681722549390    0.001884782850
 H   -3.616518812168   -0.935869171222   -0.001061861576
 H   -1.698409074648   -2.656716764486   -0.012816759975
LI   -3.073821074496    2.284057944878    0.024103032666
