17

 N   -1.571074269671   -1.653966865429   -0.004183592737
 C   -0.360886202827   -0.998760661753   -0.000221968769
 N    0.872526211476   -1.597438356215    0.011816316136
 C    1.842949411532   -0.707262214604   -0.000056140837
 N    1.639872574119    0.654375918910   -0.006891301179
 H    2.443699699370    1.274336458665   -0.088879323601
 N    3.168404165769   -1.125936936284   -0.078403444072
 H    3.822940371101   -0.594133711884    0.489237332658
 H    3.247209253160   -2.126637080219    0.083179893917
 C    0.380598831802    1.340409622441    0.006062485498
 O    0.353018462697    2.568582707218    0.001974357070
 C   -0.692186294174    0.366716233167    0.012263683438
 N   -2.063259595943    0.553047278480    0.012188498722
 C   -2.556783090454   -0.685555735565    0.001858399057
 H   -3.614281003722   -0.939702357397   -0.001088245369
 H   -1.696171266202   -2.660549950661   -0.012843143768
LI   -3.121999449556    2.366583632713    0.024671056381
