17

 N   -1.562123035888   -1.669299610131   -0.004289127908
 C   -0.351934969044   -1.014093406455   -0.000327503940
 N    0.881477445259   -1.612771100917    0.011710780965
 C    1.851900645315   -0.722594959306   -0.000161676008
 N    1.648823807902    0.639043174208   -0.006996836350
 H    2.452650933153    1.259003713963   -0.088984858772
 N    3.177355399552   -1.141269680986   -0.078508979243
 H    3.831891604884   -0.609466456586    0.489131797487
 H    3.256160486943   -2.141969824921    0.083074358746
 C    0.389550065585    1.325076877739    0.005956950327
 O    0.361969696480    2.553249962516    0.001868821899
 C   -0.683235060391    0.351383488465    0.012158148267
 N   -2.054308362160    0.537714533778    0.012082963551
 C   -2.547831856671   -0.700888480267    0.001752863886
 H   -3.605329769939   -0.955035102099   -0.001193780540
 H   -1.687220032419   -2.675882695363   -0.012948678939
LI   -3.314712949794    2.696686384056    0.026943151240
