17

 N   -1.557647418997   -1.676965982482   -0.004341895494
 C   -0.347459352153   -1.021759778806   -0.000380271526
 N    0.885953062150   -1.620437473268    0.011658013379
 C    1.856376262206   -0.730261331657   -0.000214443594
 N    1.653299424793    0.631376801857   -0.007049603936
 H    2.457126550044    1.251337341612   -0.089037626358
 N    3.181831016443   -1.148936053337   -0.078561746829
 H    3.836367221775   -0.617132828937    0.489079029901
 H    3.260636103834   -2.149636197272    0.083021591160
 C    0.394025682476    1.317410505388    0.005904182741
 O    0.366445313371    2.545583590165    0.001816054313
 C   -0.678759443500    0.343717116114    0.012105380681
 N   -2.049832745269    0.530048161427    0.012030195965
 C   -2.543356239780   -0.708554852618    0.001700096300
 H   -3.600854153048   -0.962701474450   -0.001246548126
 H   -1.682744415528   -2.683549067714   -0.013001446525
LI   -3.411069699913    2.861737759728    0.028079198669
