17

 N   -1.555409610551   -1.680799168657   -0.004368279287
 C   -0.345221543707   -1.025592964981   -0.000406655319
 N    0.888190870596   -1.624270659443    0.011631629586
 C    1.858614070652   -0.734094517832   -0.000240827387
 N    1.655537233239    0.627543615682   -0.007075987729
 H    2.459364358490    1.247504155437   -0.089064010151
 N    3.184068824889   -1.152769239512   -0.078588130622
 H    3.838605030221   -0.620966015112    0.489052646108
 H    3.262873912280   -2.153469383447    0.082995207367
 C    0.396263490922    1.313577319213    0.005877798948
 O    0.368683121817    2.541750403990    0.001789670520
 C   -0.676521635054    0.339883929939    0.012078996888
 N   -2.047594936823    0.526214975252    0.012003812172
 C   -2.541118431334   -0.712388038793    0.001673712507
 H   -3.598616344602   -0.966534660625   -0.001272931919
 H   -1.680506607082   -2.687382253889   -0.013027830318
LI   -3.459248074973    2.944263447563    0.028647222384
