17

 N   -1.550933993659   -1.688465541008   -0.004421046872
 C   -0.340745926815   -1.033259337332   -0.000459422904
 N    0.892666487488   -1.631937031794    0.011578862001
 C    1.863089687544   -0.741760890183   -0.000293594972
 N    1.660012850131    0.619877243331   -0.007128755314
 H    2.463839975382    1.239837783086   -0.089116777736
 N    3.188544441781   -1.160435611863   -0.078640898207
 H    3.843080647113   -0.628632387463    0.488999878523
 H    3.267349529172   -2.161135755798    0.082942439782
 C    0.400739107814    1.305910946862    0.005825031363
 O    0.373158738709    2.534084031639    0.001736902935
 C   -0.672046018162    0.332217557588    0.012026229303
 N   -2.043119319931    0.518548602901    0.011951044587
 C   -2.536642814442   -0.720054411144    0.001620944922
 H   -3.594140727710   -0.974201032976   -0.001325699504
 H   -1.676030990190   -2.695048626240   -0.013080597903
LI   -3.555604825092    3.109314823235    0.029783269813
