17

 N   -1.546458376768   -1.696131913359   -0.004473814458
 C   -0.336270309924   -1.040925709683   -0.000512190490
 N    0.897142104379   -1.639603404145    0.011526094415
 C    1.867565304435   -0.749427262534   -0.000346362558
 N    1.664488467022    0.612210870980   -0.007181522900
 H    2.468315592273    1.232171410735   -0.089169545322
 N    3.193020058672   -1.168101984214   -0.078693665793
 H    3.847556264004   -0.636298759814    0.488947110937
 H    3.271825146063   -2.168802128149    0.082889672196
 C    0.405214724705    1.298244574511    0.005772263777
 O    0.377634355600    2.526417659288    0.001684135349
 C   -0.667570401271    0.324551185237    0.011973461717
 N   -2.038643703040    0.510882230550    0.011898277001
 C   -2.532167197551   -0.727720783495    0.001568177336
 H   -3.589665110819   -0.981867405327   -0.001378467090
 H   -1.671555373299   -2.702714998591   -0.013133365489
LI   -3.651961575211    3.274366198906    0.030919317243
