17

 N   -1.541982759876   -1.703798285710   -0.004526582044
 C   -0.331794693032   -1.048592082034   -0.000564958076
 N    0.901617721271   -1.647269776496    0.011473326829
 C    1.872040921327   -0.757093634885   -0.000399130144
 N    1.668964083914    0.604544498629   -0.007234290486
 H    2.472791209165    1.224505038384   -0.089222312908
 N    3.197495675564   -1.175768356565   -0.078746433379
 H    3.852031880896   -0.643965132165    0.488894343351
 H    3.276300762955   -2.176468500500    0.082836904610
 C    0.409690341597    1.290578202160    0.005719496191
 O    0.382109972492    2.518751286937    0.001631367763
 C   -0.663094784379    0.316884812886    0.011920694131
 N   -2.034168086148    0.503215858199    0.011845509415
 C   -2.527691580659   -0.735387155846    0.001515409750
 H   -3.585189493927   -0.989533777678   -0.001431234676
 H   -1.667079756407   -2.710381370942   -0.013186133075
LI   -3.748318325330    3.439417574578    0.032055364672
