17

 N   -1.535269334539   -1.715297844236   -0.004605733422
 C   -0.325081267695   -1.060091640560   -0.000644109454
 N    0.908331146608   -1.658769335022    0.011394175451
 C    1.878754346664   -0.768593193411   -0.000478281522
 N    1.675677509251    0.593044940103   -0.007313441864
 H    2.479504634502    1.213005479858   -0.089301464286
 N    3.204209100901   -1.187267915091   -0.078825584757
 H    3.858745306233   -0.655464690691    0.488815191973
 H    3.283014188292   -2.187968059026    0.082757753232
 C    0.416403766934    1.279078643634    0.005640344813
 O    0.388823397829    2.507251728411    0.001552216385
 C   -0.656381359042    0.305385254360    0.011841542753
 N   -2.027454660811    0.491716299673    0.011766358037
 C   -2.520978155322   -0.746886714372    0.001436258372
 H   -3.578476068590   -1.001033336204   -0.001510386054
 H   -1.660366331070   -2.721880929468   -0.013265284453
LI   -3.892853450509    3.686994638085    0.033759435816
