17

 N   -1.530793717647   -1.722964216587   -0.004658501008
 C   -0.320605650803   -1.067758012911   -0.000696877040
 N    0.912806763500   -1.666435707373    0.011341407865
 C    1.883229963556   -0.776259565762   -0.000531049108
 N    1.680153126143    0.585378567752   -0.007366209450
 H    2.483980251394    1.205339107507   -0.089354231872
 N    3.208684717793   -1.194934287442   -0.078878352343
 H    3.863220923125   -0.663131063042    0.488762424387
 H    3.287489805184   -2.195634431377    0.082704985646
 C    0.420879383826    1.271412271283    0.005587577227
 O    0.393299014721    2.499585356060    0.001499448799
 C   -0.651905742150    0.297718882009    0.011788775167
 N   -2.022979043919    0.484049927322    0.011713590451
 C   -2.516502538430   -0.754553086723    0.001383490786
 H   -3.574000451698   -1.008699708555   -0.001563153640
 H   -1.655890714178   -2.729547301819   -0.013318052039
LI   -3.989210200628    3.852046013756    0.034895483246
