17

 N   -1.528555909201   -1.726797402762   -0.004684884801
 C   -0.318367842357   -1.071591199086   -0.000723260833
 N    0.915044571946   -1.670268893548    0.011315024072
 C    1.885467772002   -0.780092751937   -0.000557432901
 N    1.682390934589    0.581545381577   -0.007392593243
 H    2.486218059840    1.201505921332   -0.089380615665
 N    3.210922526239   -1.198767473617   -0.078904736136
 H    3.865458731571   -0.666964249217    0.488736040594
 H    3.289727613630   -2.199467617552    0.082678601853
 C    0.423117192272    1.267579085108    0.005561193434
 O    0.395536823167    2.495752169885    0.001473065006
 C   -0.649667933704    0.293885695834    0.011762391374
 N   -2.020741235473    0.480216741147    0.011687206658
 C   -2.514264729984   -0.758386272898    0.001357106993
 H   -3.571762643252   -1.012532894730   -0.001589537433
 H   -1.653652905732   -2.733380487994   -0.013344435832
LI   -4.037388575687    3.934571701592    0.035463506961
