17

 N   -1.521842483864   -1.738296961289   -0.004764036179
 C   -0.311654417020   -1.083090757613   -0.000802412211
 N    0.921757997283   -1.681768452075    0.011235872694
 C    1.892181197339   -0.791592310464   -0.000636584279
 N    1.689104359926    0.570045823050   -0.007471744621
 H    2.492931485177    1.190006362805   -0.089459767043
 N    3.217635951576   -1.210267032144   -0.078983887514
 H    3.872172156908   -0.678463807744    0.488656889216
 H    3.296441038967   -2.210967176079    0.082599450475
 C    0.429830617609    1.256079526581    0.005482042056
 O    0.402250248504    2.484252611358    0.001393913628
 C   -0.642954508367    0.282386137307    0.011683239996
 N   -2.014027810136    0.468717182620    0.011608055280
 C   -2.507551304647   -0.769885831425    0.001277955615
 H   -3.565049217915   -1.024032453257   -0.001668688811
 H   -1.646939480395   -2.744880046521   -0.013423587210
LI   -4.181923700866    4.182148765099    0.037167578105
