17

 N   -1.519604675418   -1.742130147464   -0.004790419972
 C   -0.309416608574   -1.086923943788   -0.000828796004
 N    0.923995805729   -1.685601638250    0.011209488901
 C    1.894419005785   -0.795425496639   -0.000662968072
 N    1.691342168372    0.566212636875   -0.007498128414
 H    2.495169293623    1.186173176630   -0.089486150836
 N    3.219873760022   -1.214100218319   -0.079010271307
 H    3.874409965354   -0.682296993919    0.488630505423
 H    3.298678847413   -2.214800362254    0.082573066682
 C    0.432068426055    1.252246340406    0.005455658263
 O    0.404488056950    2.480419425183    0.001367529835
 C   -0.640716699921    0.278552951132    0.011656856203
 N   -2.011790001690    0.464883996445    0.011581671487
 C   -2.505313496201   -0.773719017600    0.001251571822
 H   -3.562811409469   -1.027865639432   -0.001695072604
 H   -1.644701671949   -2.748713232696   -0.013449971003
LI   -4.230102075926    4.264674452934    0.037735601820
