17

 N   -1.512891250081   -1.753629705990   -0.004869571350
 C   -0.302703183237   -1.098423502314   -0.000907947382
 N    0.930709231066   -1.697101196776    0.011130337523
 C    1.901132431122   -0.806925055165   -0.000742119450
 N    1.698055593709    0.554713078349   -0.007577279792
 H    2.501882718960    1.174673618104   -0.089565302214
 N    3.226587185359   -1.225599776845   -0.079089422685
 H    3.881123390691   -0.693796552445    0.488551354045
 H    3.305392272750   -2.226299920780    0.082493915304
 C    0.438781851392    1.240746781880    0.005376506885
 O    0.411201482287    2.468919866657    0.001288378457
 C   -0.634003274584    0.267053392606    0.011577704825
 N   -2.005076576353    0.453384437919    0.011502520109
 C   -2.498600070864   -0.785218576126    0.001172420444
 H   -3.556097984132   -1.039365197958   -0.001774223982
 H   -1.637988246612   -2.760212791222   -0.013529122381
LI   -4.374637201104    4.512251516442    0.039439672964
