17

 N   -1.497226590960   -1.780462009218   -0.005054257900
 C   -0.287038524116   -1.125255805542   -0.001092633932
 N    0.946373890187   -1.723933500004    0.010945650973
 C    1.916797090243   -0.833757358393   -0.000926806000
 N    1.713720252830    0.527880775121   -0.007761966342
 H    2.517547378081    1.147841314876   -0.089749988764
 N    3.242251844480   -1.252432080073   -0.079274109235
 H    3.896788049812   -0.720628855673    0.488366667495
 H    3.321056931871   -2.253132224008    0.082309228754
 C    0.454446510513    1.213914478652    0.005191820335
 O    0.426866141408    2.442087563429    0.001103691907
 C   -0.618338615463    0.240221089378    0.011393018275
 N   -1.989411917232    0.426552134691    0.011317833559
 C   -2.482935411743   -0.812050879354    0.000987733894
 H   -3.540433325011   -1.066197501186   -0.001958910532
 H   -1.622323587491   -2.787045094450   -0.013713808931
LI   -4.711885826521    5.089931331291    0.043415838967
