17

 N   -1.481561931840   -1.807294312446   -0.005238944450
 C   -0.271373864996   -1.152088108770   -0.001277320482
 N    0.962038549307   -1.750765803232    0.010760964423
 C    1.932461749363   -0.860589661621   -0.001111492550
 N    1.729384911950    0.501048471893   -0.007946652892
 H    2.533212037201    1.121009011648   -0.089934675314
 N    3.257916503600   -1.279264383301   -0.079458795785
 H    3.912452708932   -0.747461158901    0.488181980945
 H    3.336721590991   -2.279964527236    0.082124542204
 C    0.470111169633    1.187082175424    0.005007133785
 O    0.442530800528    2.415255260201    0.000919005357
 C   -0.602673956343    0.213388786150    0.011208331725
 N   -1.973747258112    0.399719831463    0.011133147009
 C   -2.467270752623   -0.838883182582    0.000803047344
 H   -3.524768665891   -1.093029804414   -0.002143597082
 H   -1.606658928371   -2.813877397678   -0.013898495481
LI   -5.049134451938    5.667611146141    0.047392004970
