17

 N   -1.477086314948   -1.814960684797   -0.005291712036
 C   -0.266898248104   -1.159754481121   -0.001330088068
 N    0.966514166199   -1.758432175583    0.010708196837
 C    1.936937366255   -0.868256033972   -0.001164260136
 N    1.733860528842    0.493382099542   -0.007999420478
 H    2.537687654093    1.113342639297   -0.089987442900
 N    3.262392120492   -1.286930755652   -0.079511563371
 H    3.916928325824   -0.755127531252    0.488129213359
 H    3.341197207883   -2.287630899587    0.082071774618
 C    0.474586786525    1.179415803073    0.004954366199
 O    0.447006417420    2.407588887850    0.000866237771
 C   -0.598198339451    0.205722413799    0.011155564139
 N   -1.969271641220    0.392053459112    0.011080379423
 C   -2.462795135731   -0.846549554933    0.000750279758
 H   -3.520293048999   -1.100696176765   -0.002196364668
 H   -1.602183311479   -2.821543770029   -0.013951263067
LI   -5.145491202058    5.832662521813    0.048528052399
