17

 N   -1.474848506502   -1.818793870973   -0.005318095828
 C   -0.264660439658   -1.163587667297   -0.001356471860
 N    0.968751974645   -1.762265361759    0.010681813045
 C    1.939175174701   -0.872089220148   -0.001190643928
 N    1.736098337288    0.489548913366   -0.008025804270
 H    2.539925462539    1.109509453121   -0.090013826692
 N    3.264629928938   -1.290763941828   -0.079537947163
 H    3.919166134270   -0.758960717428    0.488102829567
 H    3.343435016329   -2.291464085763    0.082045390826
 C    0.476824594971    1.175582616897    0.004927982407
 O    0.449244225866    2.403755701674    0.000839853979
 C   -0.595960531005    0.201889227623    0.011129180347
 N   -1.967033832774    0.388220272936    0.011053995631
 C   -2.460557327285   -0.850382741109    0.000723895966
 H   -3.518055240553   -1.104529362941   -0.002222748460
 H   -1.599945503033   -2.825376956205   -0.013977646859
LI   -5.193669577117    5.915188209648    0.049096076114
