17

 N   -1.468135081165   -1.830293429499   -0.005397247207
 C   -0.257947014321   -1.175087225823   -0.001435623239
 N    0.975465399982   -1.773764920285    0.010602661666
 C    1.945888600038   -0.883588778674   -0.001269795307
 N    1.742811762625    0.478049354840   -0.008104955649
 H    2.546638887876    1.098009894595   -0.090092978071
 N    3.271343354275   -1.302263500354   -0.079617098542
 H    3.925879559607   -0.770460275954    0.488023678188
 H    3.350148441666   -2.302963644289    0.081966239447
 C    0.483538020308    1.164083058371    0.004848831028
 O    0.455957651203    2.392256143148    0.000760702600
 C   -0.589247105668    0.190389669097    0.011050028968
 N   -1.960320407437    0.376720714410    0.010974844252
 C   -2.453843901948   -0.861882299635    0.000644744587
 H   -3.511341815216   -1.116028921467   -0.002301899839
 H   -1.593232077696   -2.836876514731   -0.014056798238
LI   -5.338204702296    6.162765273156    0.050800147258
