17

 N   -1.465897272719   -1.834126615674   -0.005423631000
 C   -0.255709205875   -1.178920411998   -0.001462007032
 N    0.977703208428   -1.777598106460    0.010576277873
 C    1.948126408484   -0.887421964849   -0.001296179100
 N    1.745049571071    0.474216168665   -0.008131339442
 H    2.548876696322    1.094176708420   -0.090119361864
 N    3.273581162721   -1.306096686529   -0.079643482335
 H    3.928117368053   -0.774293462129    0.487997294395
 H    3.352386250112   -2.306796830464    0.081939855654
 C    0.485775828754    1.160249872196    0.004822447235
 O    0.458195459649    2.388422956973    0.000734318807
 C   -0.587009297222    0.186556482922    0.011023645175
 N   -1.958082598991    0.372887528235    0.010948460459
 C   -2.451606093502   -0.865715485810    0.000618360794
 H   -3.509104006770   -1.119862107642   -0.002328283632
 H   -1.590994269250   -2.840709700906   -0.014083182031
LI   -5.386383077355    6.245290960991    0.051368170973
