17

 N   -1.463659464274   -1.837959801850   -0.005450014792
 C   -0.253471397430   -1.182753598174   -0.001488390824
 N    0.979941016873   -1.781431292636    0.010549894081
 C    1.950364216929   -0.891255151025   -0.001322562892
 N    1.747287379516    0.470382982489   -0.008157723234
 H    2.551114504767    1.090343522244   -0.090145745656
 N    3.275818971166   -1.309929872705   -0.079669866127
 H    3.930355176498   -0.778126648305    0.487970910603
 H    3.354624058557   -2.310630016640    0.081913471862
 C    0.488013637199    1.156416686020    0.004796063443
 O    0.460433268094    2.384589770797    0.000707935015
 C   -0.584771488777    0.182723296746    0.010997261383
 N   -1.955844790546    0.369054342059    0.010922076667
 C   -2.449368285057   -0.869548671986    0.000591977002
 H   -3.506866198325   -1.123695293818   -0.002354667424
 H   -1.588756460805   -2.844542887082   -0.014109565823
LI   -5.434561452415    6.327816648827    0.051936194688
