17

 N   -1.459183847382   -1.845626174201   -0.005502782378
 C   -0.248995780538   -1.190419970525   -0.001541158410
 N    0.984416633765   -1.789097664987    0.010497126495
 C    1.954839833821   -0.898921523376   -0.001375330478
 N    1.751762996408    0.462716610138   -0.008210490820
 H    2.555590121659    1.082677149893   -0.090198513242
 N    3.280294588058   -1.317596245056   -0.079722633713
 H    3.934830793390   -0.785793020656    0.487918143017
 H    3.359099675449   -2.318296388991    0.081860704276
 C    0.492489254091    1.148750313669    0.004743295857
 O    0.464908884986    2.376923398446    0.000655167429
 C   -0.580295871885    0.175056924395    0.010944493797
 N   -1.951369173654    0.361387969708    0.010869309081
 C   -2.444892668165   -0.877215044337    0.000539209416
 H   -3.502390581433   -1.131361666169   -0.002407435010
 H   -1.584280843913   -2.852209259433   -0.014162333409
LI   -5.530918202534    6.492868024498    0.053072242117
