17

 N   -1.450232613599   -1.860958918902   -0.005608317549
 C   -0.240044546755   -1.205752715226   -0.001646693581
 N    0.993367867548   -1.804430409688    0.010391591324
 C    1.963791067604   -0.914254268077   -0.001480865649
 N    1.760714230191    0.447383865437   -0.008316025991
 H    2.564541355442    1.067344405192   -0.090304048413
 N    3.289245821841   -1.332928989757   -0.079828168884
 H    3.943782027173   -0.801125765357    0.487812607846
 H    3.368050909232   -2.333629133692    0.081755169105
 C    0.501440487874    1.133417568968    0.004637760686
 O    0.473860118769    2.361590653745    0.000549632258
 C   -0.571344638102    0.159724179694    0.010838958626
 N   -1.942417939871    0.346055225007    0.010763773910
 C   -2.435941434382   -0.892547789038    0.000433674245
 H   -3.493439347650   -1.146694410870   -0.002512970181
 H   -1.575329610130   -2.867542004134   -0.014267868580
LI   -5.723631702772    6.822970775841    0.055344336976
