17

 N   -1.447994805153   -1.864792105078   -0.005634701342
 C   -0.237806738309   -1.209585901402   -0.001673077374
 N    0.995605675994   -1.808263595864    0.010365207531
 C    1.966028876050   -0.918087454253   -0.001507249442
 N    1.762952038637    0.443550679261   -0.008342409784
 H    2.566779163888    1.063511219016   -0.090330432206
 N    3.291483630287   -1.336762175933   -0.079854552677
 H    3.946019835619   -0.804958951533    0.487786224053
 H    3.370288717678   -2.337462319868    0.081728785312
 C    0.503678296320    1.129584382792    0.004611376893
 O    0.476097927215    2.357757467569    0.000523248465
 C   -0.569106829656    0.155890993518    0.010812574833
 N   -1.940180131425    0.342222038831    0.010737390117
 C   -2.433703625936   -0.896380975214    0.000407290452
 H   -3.491201539204   -1.150527597046   -0.002539353974
 H   -1.573091801684   -2.871375190310   -0.014294252373
LI   -5.771810077832    6.905496463677    0.055912360691
