17

 N   -1.443519188261   -1.872458477429   -0.005687468928
 C   -0.233331121417   -1.217252273753   -0.001725844960
 N    1.000081292886   -1.815929968215    0.010312439945
 C    1.970504492942   -0.925753826604   -0.001560017028
 N    1.767427655529    0.435884306910   -0.008395177370
 H    2.571254780780    1.055844846665   -0.090383199792
 N    3.295959247179   -1.344428548284   -0.079907320263
 H    3.950495452511   -0.812625323884    0.487733456467
 H    3.374764334570   -2.345128692219    0.081676017726
 C    0.508153913212    1.121918010441    0.004558609307
 O    0.480573544107    2.350091095218    0.000470480879
 C   -0.564631212764    0.148224621167    0.010759807247
 N   -1.935704514533    0.334555666480    0.010684622531
 C   -2.429228009044   -0.904047347565    0.000354522866
 H   -3.486725922312   -1.158193969397   -0.002592121560
 H   -1.568616184792   -2.879041562661   -0.014347019959
LI   -5.868166827951    7.070547839348    0.057048408120
