17

 N   -1.441281379816   -1.876291663604   -0.005713852721
 C   -0.231093312972   -1.221085459928   -0.001752228753
 N    1.002319101331   -1.819763154390    0.010286056152
 C    1.972742301387   -0.929587012779   -0.001586400821
 N    1.769665463974    0.432051120735   -0.008421561163
 H    2.573492589225    1.052011660490   -0.090409583585
 N    3.298197055624   -1.348261734459   -0.079933704056
 H    3.952733260956   -0.816458510059    0.487707072674
 H    3.377002143015   -2.348961878394    0.081649633933
 C    0.510391721657    1.118084824266    0.004532225514
 O    0.482811352552    2.346257909043    0.000444097086
 C   -0.562393404319    0.144391434992    0.010733423454
 N   -1.933466706088    0.330722480305    0.010658238738
 C   -2.426990200599   -0.907880533740    0.000328139073
 H   -3.484488113867   -1.162027155572   -0.002618505353
 H   -1.566378376347   -2.882874748836   -0.014373403752
LI   -5.916345203011    7.153073527184    0.057616431835
