17

 N   -1.436805762924   -1.883958035955   -0.005766620306
 C   -0.226617696080   -1.228751832279   -0.001804996338
 N    1.006794718223   -1.827429526741    0.010233288567
 C    1.977217918279   -0.937253385130   -0.001639168406
 N    1.774141080866    0.424384748384   -0.008474328748
 H    2.577968206117    1.044345288139   -0.090462351170
 N    3.302672672516   -1.355928106810   -0.079986471641
 H    3.957208877848   -0.824124882410    0.487654305089
 H    3.381477759907   -2.356628250745    0.081596866348
 C    0.514867338549    1.110418451915    0.004479457929
 O    0.487286969444    2.338591536692    0.000391329501
 C   -0.557917787427    0.136725062641    0.010680655869
 N   -1.928991089196    0.323056107954    0.010605471153
 C   -2.422514583707   -0.915546906091    0.000275371488
 H   -3.480012496975   -1.169693527923   -0.002671272938
 H   -1.561902759455   -2.890541121187   -0.014426171337
LI   -6.012701953130    7.318124902855    0.058752479265
