17

 N   -1.427854529141   -1.899290780657   -0.005872155478
 C   -0.217666462297   -1.244084576981   -0.001910531510
 N    1.015745952006   -1.842762271443    0.010127753395
 C    1.986169152062   -0.952586129832   -0.001744703578
 N    1.783092314649    0.409052003682   -0.008579863920
 H    2.586919439900    1.029012543437   -0.090567886342
 N    3.311623906299   -1.371260851512   -0.080092006813
 H    3.966160111631   -0.839457627112    0.487548769917
 H    3.390428993690   -2.371960995447    0.081491331176
 C    0.523818572332    1.095085707213    0.004373922757
 O    0.496238203227    2.323258791990    0.000285794329
 C   -0.548966553644    0.121392317939    0.010575120697
 N   -1.920039855413    0.307723363252    0.010499935981
 C   -2.413563349924   -0.930879650793    0.000169836316
 H   -3.471061263192   -1.185026272625   -0.002776808110
 H   -1.552951525672   -2.905873865889   -0.014531706509
LI   -6.205415453368    7.648227654198    0.061024574124
