17

 N   -1.421141103804   -1.910790339183   -0.005951306856
 C   -0.210953036960   -1.255584135507   -0.001989682888
 N    1.022459377343   -1.854261829969    0.010048602017
 C    1.992882577399   -0.964085688358   -0.001823854956
 N    1.789805739986    0.397552445156   -0.008659015298
 H    2.593632865237    1.017512984911   -0.090647037720
 N    3.318337331636   -1.382760410038   -0.080171158191
 H    3.972873536968   -0.850957185638    0.487469618539
 H    3.397142419027   -2.383460553973    0.081412179798
 C    0.530531997669    1.083586148687    0.004294771379
 O    0.502951628564    2.311759233464    0.000206642951
 C   -0.542253128307    0.109892759413    0.010495969319
 N   -1.913326430076    0.296223804726    0.010420784603
 C   -2.406849924587   -0.942379209319    0.000090684938
 H   -3.464347837855   -1.196525831151   -0.002855959488
 H   -1.546238100335   -2.917373424415   -0.014610857887
LI   -6.349950578547    7.895804717705    0.062728645268
