17

 N   -1.418903295358   -1.914623525358   -0.005977690649
 C   -0.208715228514   -1.259417321682   -0.002016066681
 N    1.024697185789   -1.858095016144    0.010022218224
 C    1.995120385845   -0.967918874533   -0.001850238749
 N    1.792043548432    0.393719258981   -0.008685399091
 H    2.595870673683    1.013679798736   -0.090673421513
 N    3.320575140082   -1.386593596213   -0.080197541984
 H    3.975111345414   -0.854790371813    0.487443234746
 H    3.399380227473   -2.387293740148    0.081385796005
 C    0.532769806115    1.079752962512    0.004268387586
 O    0.505189437010    2.307926047289    0.000180259158
 C   -0.540015319861    0.106059573238    0.010469585526
 N   -1.911088621630    0.292390618551    0.010394400810
 C   -2.404612116141   -0.946212395494    0.000064301145
 H   -3.462110029409   -1.200359017326   -0.002882343281
 H   -1.544000291889   -2.921206610590   -0.014637241680
LI   -6.398128953606    7.978330405541    0.063296668982
