17

 N   -1.416665486912   -1.918456711534   -0.006004074442
 C   -0.206477420068   -1.263250507858   -0.002042450474
 N    1.026934994235   -1.861928202320    0.009995834431
 C    1.997358194291   -0.971752060709   -0.001876622542
 N    1.794281356878    0.389886072805   -0.008711782884
 H    2.598108482129    1.009846612560   -0.090699805306
 N    3.322812948528   -1.390426782389   -0.080223925777
 H    3.977349153860   -0.858623557989    0.487416850953
 H    3.401618035919   -2.391126926324    0.081359412212
 C    0.535007614561    1.075919776336    0.004242003793
 O    0.507427245456    2.304092861113    0.000153875365
 C   -0.537777511415    0.102226387062    0.010443201733
 N   -1.908850813184    0.288557432375    0.010368017017
 C   -2.402374307695   -0.950045581670    0.000037917352
 H   -3.459872220963   -1.204192203502   -0.002908727074
 H   -1.541762483443   -2.925039796766   -0.014663625473
LI   -6.446307328666    8.060856093377    0.063864692697
