17

 N   -1.414427678466   -1.922289897709   -0.006030458235
 C   -0.204239611622   -1.267083694033   -0.002068834267
 N    1.029172802681   -1.865761388495    0.009969450638
 C    1.999596002737   -0.975585246884   -0.001903006335
 N    1.796519165324    0.386052886630   -0.008738166677
 H    2.600346290575    1.006013426385   -0.090726189099
 N    3.325050756974   -1.394259968564   -0.080250309570
 H    3.979586962306   -0.862456744164    0.487390467160
 H    3.403855844365   -2.394960112499    0.081333028419
 C    0.537245423007    1.072086590161    0.004215620000
 O    0.509665053902    2.300259674938    0.000127491572
 C   -0.535539702969    0.098393200887    0.010416817940
 N   -1.906613004738    0.284724246200    0.010341633224
 C   -2.400136499249   -0.953878767845    0.000011533559
 H   -3.457634412517   -1.208025389677   -0.002935110867
 H   -1.539524674997   -2.928872982941   -0.014690009266
LI   -6.494485703725    8.143381781212    0.064432716412
