17

 N   -1.412189870020   -1.926123083885   -0.006056842027
 C   -0.202001803176   -1.270916880209   -0.002095218059
 N    1.031410611127   -1.869594574671    0.009943066846
 C    2.001833811183   -0.979418433060   -0.001929390127
 N    1.798756973770    0.382219700454   -0.008764550469
 H    2.602584099021    1.002180240209   -0.090752572891
 N    3.327288565420   -1.398093154740   -0.080276693362
 H    3.981824770752   -0.866289930340    0.487364083368
 H    3.406093652811   -2.398793298675    0.081306644627
 C    0.539483231453    1.068253403985    0.004189236208
 O    0.511902862348    2.296426488762    0.000101107780
 C   -0.533301894523    0.094560014711    0.010390434148
 N   -1.904375196292    0.280891060024    0.010315249432
 C   -2.397898690803   -0.957711954021   -0.000014850233
 H   -3.455396604071   -1.211858575853   -0.002961494659
 H   -1.537286866551   -2.932706169117   -0.014716393058
LI   -6.542664078785    8.225907469048    0.065000740127
