17

 N   -1.407714253129   -1.933789456235   -0.006109609613
 C   -0.197526186285   -1.278583252559   -0.002147985645
 N    1.035886228018   -1.877260947021    0.009890299260
 C    2.006309428074   -0.987084805410   -0.001982157713
 N    1.803232590661    0.374553328104   -0.008817318055
 H    2.607059715912    0.994513867859   -0.090805340477
 N    3.331764182311   -1.405759527090   -0.080329460948
 H    3.986300387643   -0.873956302690    0.487311315782
 H    3.410569269702   -2.406459671025    0.081253877041
 C    0.543958848344    1.060587031635    0.004136468622
 O    0.516378479239    2.288760116412    0.000048340194
 C   -0.528826277632    0.086893642361    0.010337666562
 N   -1.899899579401    0.273224687674    0.010262481846
 C   -2.393423073912   -0.965378326371   -0.000067617819
 H   -3.450920987180   -1.219524948203   -0.003014262245
 H   -1.532811249660   -2.940372541467   -0.014769160644
LI   -6.639020828904    8.390958844719    0.066136787556
