17

 N   -1.401000827792   -1.945289014762   -0.006188760992
 C   -0.190812760948   -1.290082811086   -0.002227137024
 N    1.042599653355   -1.888760505548    0.009811147881
 C    2.013022853411   -0.998584363937   -0.002061309092
 N    1.809946015998    0.363053769577   -0.008896469434
 H    2.613773141249    0.983014309332   -0.090884491856
 N    3.338477607648   -1.417259085617   -0.080408612327
 H    3.993013812980   -0.885455861217    0.487232164403
 H    3.417282695039   -2.417959229552    0.081174725662
 C    0.550672273681    1.049087473108    0.004057317243
 O    0.523091904576    2.277260557885   -0.000030811185
 C   -0.522112852295    0.075394083834    0.010258515183
 N   -1.893186154064    0.261725129147    0.010183330467
 C   -2.386709648575   -0.976877884898   -0.000146769198
 H   -3.444207561843   -1.231024506730   -0.003093413624
 H   -1.526097824323   -2.951872099994   -0.014848312023
LI   -6.783555954083    8.638535908226    0.067840858700
