14

 P   -0.115236622725    0.120927495023   -0.196200371766
 O   -0.702236622725    1.170927495023    0.758799628234
 O   -0.381236622725    0.168927495023   -1.708200371766
 O    1.547763377275   -0.053072504977    0.090799628234
 O   -0.430236622725   -1.437072504977    0.395799628234
 C    2.284763377275    1.111927495023   -0.286200371766
 H    1.953763377275    1.994927495023    0.289799628234
 H    2.169763377275    1.322927495023   -1.364200371766
 H    3.344763377275    0.909927495023   -0.066200371766
 C   -1.821236622725   -1.760072504977    0.345799628234
 H   -2.199236622725   -1.733072504977   -0.692200371766
 H   -2.414236622725   -1.061072504977    0.961799628234
 H   -1.931236622725   -2.780072504977    0.745799628234
LI   -0.494369713424    1.110747408250    1.837303084498
