14

 P   -0.116240902383    0.121218246626   -0.201411009122
 O   -0.703240902383    1.171218246626    0.753588990878
 O   -0.382240902383    0.169218246626   -1.713411009122
 O    1.546759097617   -0.052781753374    0.085588990878
 O   -0.431240902383   -1.436781753374    0.390588990878
 C    2.283759097617    1.112218246626   -0.291411009122
 H    1.952759097617    1.995218246626    0.284588990878
 H    2.168759097617    1.323218246626   -1.369411009122
 H    3.343759097617    0.910218246626   -0.071411009122
 C   -1.822240902383   -1.759781753374    0.340588990878
 H   -2.200240902383   -1.732781753374   -0.697411009122
 H   -2.415240902383   -1.060781753374    0.956588990878
 H   -1.932240902383   -2.779781753374    0.740588990878
LI   -0.476477001328    1.105567242874    1.930138215894
