14

 P   -0.123270859992    0.123253507843   -0.237885470612
 O   -0.710270859992    1.173253507843    0.717114529388
 O   -0.389270859992    0.171253507843   -1.749885470612
 O    1.539729140008   -0.050746492157    0.049114529388
 O   -0.438270859992   -1.434746492157    0.354114529388
 C    2.276729140008    1.114253507843   -0.327885470612
 H    1.945729140008    1.997253507843    0.248114529388
 H    2.161729140008    1.325253507843   -1.405885470612
 H    3.336729140008    0.912253507843   -0.107885470612
 C   -1.829270859992   -1.757746492157    0.304114529388
 H   -2.207270859992   -1.730746492157   -0.733885470612
 H   -2.422270859992   -1.058746492157    0.920114529388
 H   -1.939270859992   -2.777746492157    0.704114529388
LI   -0.351228016654    1.069306085236    2.579984135662
