14

 P   -0.129296537943    0.124998017458   -0.269149294748
 O   -0.716296537943    1.174998017458    0.685850705252
 O   -0.395296537943    0.172998017458   -1.781149294748
 O    1.533703462057   -0.049001982542    0.017850705252
 O   -0.444296537943   -1.433001982542    0.322850705252
 C    2.270703462057    1.115998017458   -0.359149294748
 H    1.939703462057    1.998998017458    0.216850705252
 H    2.155703462057    1.326998017458   -1.437149294748
 H    3.330703462057    0.913998017458   -0.139149294748
 C   -1.835296537943   -1.756001982542    0.272850705252
 H   -2.213296537943   -1.729001982542   -0.765149294748
 H   -2.428296537943   -1.057001982542    0.888850705252
 H   -1.945296537943   -2.776001982542    0.672850705252
LI   -0.243871744077    1.038225092975    3.136994924035
