14

 P   -0.134317936235    0.126451775471   -0.295202481527
 O   -0.721317936235    1.176451775471    0.659797518473
 O   -0.400317936235    0.174451775471   -1.807202481527
 O    1.528682063765   -0.047548224529   -0.008202481527
 O   -0.449317936235   -1.431548224529    0.296797518473
 C    2.265682063765    1.117451775471   -0.385202481527
 H    1.934682063765    2.000451775471    0.190797518473
 H    2.150682063765    1.328451775471   -1.463202481527
 H    3.325682063765    0.915451775471   -0.165202481527
 C   -1.840317936235   -1.754548224529    0.246797518473
 H   -2.218317936235   -1.727548224529   -0.791202481527
 H   -2.433317936235   -1.055548224529    0.862797518473
 H   -1.950317936235   -2.774548224529    0.646797518473
LI   -0.154408183596    1.012324266091    3.601170581012
