14

 P   -0.138335054868    0.127614781881   -0.316045030950
 O   -0.725335054868    1.177614781881    0.638954969050
 O   -0.404335054868    0.175614781881   -1.828045030950
 O    1.524664945132   -0.046385218119   -0.029045030950
 O   -0.453335054868   -1.430385218119    0.275954969050
 C    2.261664945132    1.118614781881   -0.406045030950
 H    1.930664945132    2.001614781881    0.169954969050
 H    2.146664945132    1.329614781881   -1.484045030950
 H    3.321664945132    0.916614781881   -0.186045030950
 C   -1.844335054868   -1.753385218119    0.225954969050
 H   -2.222335054868   -1.726385218119   -0.812045030950
 H   -2.437335054868   -1.054385218119    0.841954969050
 H   -1.954335054868   -2.773385218119    0.625954969050
LI   -0.082837335211    0.991603604583    3.972511106594
