14

 P   -0.145365012477    0.129650043098   -0.352519492441
 O   -0.732365012477    1.179650043098    0.602480507559
 O   -0.411365012477    0.177650043098   -1.864519492441
 O    1.517634987523   -0.044349956902   -0.065519492441
 O   -0.460365012477   -1.428349956902    0.239480507559
 C    2.254634987523    1.120650043098   -0.442519492441
 H    1.923634987523    2.003650043098    0.133480507559
 H    2.139634987523    1.331650043098   -1.520519492441
 H    3.314634987523    0.918650043098   -0.222519492441
 C   -1.851365012477   -1.751349956902    0.189480507559
 H   -2.229365012477   -1.724349956902   -0.848519492441
 H   -2.444365012477   -1.052349956902    0.805480507559
 H   -1.961365012477   -2.771349956902    0.589480507559
LI    0.042411649462    0.955342446945    4.622357026362
