14

 P   -0.150386410769    0.131103801111   -0.378572679220
 O   -0.737386410769    1.181103801111    0.576427320780
 O   -0.416386410769    0.179103801111   -1.890572679220
 O    1.512613589231   -0.042896198889   -0.091572679220
 O   -0.465386410769   -1.426896198889    0.213427320780
 C    2.249613589231    1.122103801111   -0.468572679220
 H    1.918613589231    2.005103801111    0.107427320780
 H    2.134613589231    1.333103801111   -1.546572679220
 H    3.309613589231    0.920103801111   -0.248572679220
 C   -1.856386410769   -1.749896198889    0.163427320780
 H   -2.234386410769   -1.722896198889   -0.874572679220
 H   -2.449386410769   -1.050896198889    0.779427320780
 H   -1.966386410769   -2.769896198889    0.563427320780
LI    0.131875209943    0.929441620061    5.086532683339
