14

 P   -0.151390690428    0.131394552713   -0.383783316576
 O   -0.738390690428    1.181394552713    0.571216683424
 O   -0.417390690428    0.179394552713   -1.895783316576
 O    1.511609309572   -0.042605447287   -0.096783316576
 O   -0.466390690428   -1.426605447287    0.208216683424
 C    2.248609309572    1.122394552713   -0.473783316576
 H    1.917609309572    2.005394552713    0.102216683424
 H    2.133609309572    1.333394552713   -1.551783316576
 H    3.308609309572    0.920394552713   -0.253783316576
 C   -1.857390690428   -1.749605447287    0.158216683424
 H   -2.235390690428   -1.722605447287   -0.879783316576
 H   -2.450390690428   -1.050605447287    0.774216683424
 H   -1.967390690428   -2.769605447287    0.558216683424
LI    0.149767922040    0.924261454684    5.179367814734
