14

 P   -0.152394970086    0.131685304316   -0.388993953932
 O   -0.739394970086    1.181685304316    0.566006046068
 O   -0.418394970086    0.179685304316   -1.900993953932
 O    1.510605029914   -0.042314695684   -0.101993953932
 O   -0.467394970086   -1.426314695684    0.203006046068
 C    2.247605029914    1.122685304316   -0.478993953932
 H    1.916605029914    2.005685304316    0.097006046068
 H    2.132605029914    1.333685304316   -1.556993953932
 H    3.307605029914    0.920685304316   -0.258993953932
 C   -1.858394970086   -1.749314695684    0.153006046068
 H   -2.236394970086   -1.722314695684   -0.884993953932
 H   -2.451394970086   -1.050314695684    0.769006046068
 H   -1.968394970086   -2.769314695684    0.553006046068
LI    0.167660634136    0.919081289308    5.272202946130
