14

 P   -0.153399249745    0.131976055918   -0.394204591288
 O   -0.740399249745    1.181976055918    0.560795408712
 O   -0.419399249745    0.179976055918   -1.906204591288
 O    1.509600750255   -0.042023944082   -0.107204591288
 O   -0.468399249745   -1.426023944082    0.197795408712
 C    2.246600750255    1.122976055918   -0.484204591288
 H    1.915600750255    2.005976055918    0.091795408712
 H    2.131600750255    1.333976055918   -1.562204591288
 H    3.306600750255    0.920976055918   -0.264204591288
 C   -1.859399249745   -1.749023944082    0.147795408712
 H   -2.237399249745   -1.722023944082   -0.890204591288
 H   -2.452399249745   -1.050023944082    0.763795408712
 H   -1.969399249745   -2.769023944082    0.547795408712
LI    0.185553346232    0.913901123931    5.365038077525
