14

 P   -0.155407809061    0.132557559123   -0.404625865999
 O   -0.742407809061    1.182557559123    0.550374134001
 O   -0.421407809061    0.180557559123   -1.916625865999
 O    1.507592190939   -0.041442440877   -0.117625865999
 O   -0.470407809061   -1.425442440877    0.187374134001
 C    2.244592190939    1.123557559123   -0.494625865999
 H    1.913592190939    2.006557559123    0.081374134001
 H    2.129592190939    1.334557559123   -1.572625865999
 H    3.304592190939    0.921557559123   -0.274625865999
 C   -1.861407809061   -1.748442440877    0.137374134001
 H   -2.239407809061   -1.721442440877   -0.900625865999
 H   -2.454407809061   -1.049442440877    0.753374134001
 H   -1.971407809061   -2.768442440877    0.537374134001
LI    0.221338770424    0.903540793177    5.550708340316
