14

 P   -0.156412088720    0.132848310726   -0.409836503355
 O   -0.743412088720    1.182848310726    0.545163496645
 O   -0.422412088720    0.180848310726   -1.921836503355
 O    1.506587911280   -0.041151689274   -0.122836503355
 O   -0.471412088720   -1.425151689274    0.182163496645
 C    2.243587911280    1.123848310726   -0.499836503355
 H    1.912587911280    2.006848310726    0.076163496645
 H    2.128587911280    1.334848310726   -1.577836503355
 H    3.303587911280    0.921848310726   -0.279836503355
 C   -1.862412088720   -1.748151689274    0.132163496645
 H   -2.240412088720   -1.721151689274   -0.905836503355
 H   -2.455412088720   -1.049151689274    0.748163496645
 H   -1.972412088720   -2.768151689274    0.532163496645
LI    0.239231482521    0.898360627800    5.643543471712
