14

 P   -0.160429207353    0.134011317136   -0.430679052779
 O   -0.747429207353    1.184011317136    0.524320947221
 O   -0.426429207353    0.182011317136   -1.942679052779
 O    1.502570792647   -0.039988682864   -0.143679052779
 O   -0.475429207353   -1.423988682864    0.161320947221
 C    2.239570792647    1.125011317136   -0.520679052779
 H    1.908570792647    2.008011317136    0.055320947221
 H    2.124570792647    1.336011317136   -1.598679052779
 H    3.299570792647    0.923011317136   -0.300679052779
 C   -1.866429207353   -1.746988682864    0.111320947221
 H   -2.244429207353   -1.719988682864   -0.926679052779
 H   -2.459429207353   -1.047988682864    0.727320947221
 H   -1.976429207353   -2.766988682864    0.511320947221
LI    0.310802330906    0.877639966293    6.014883997293
