14

 P   -0.161433487012    0.134302068738   -0.435889690134
 O   -0.748433487012    1.184302068738    0.519110309866
 O   -0.427433487012    0.182302068738   -1.947889690134
 O    1.501566512988   -0.039697931262   -0.148889690134
 O   -0.476433487012   -1.423697931262    0.156110309866
 C    2.238566512988    1.125302068738   -0.525889690134
 H    1.907566512988    2.008302068738    0.050110309866
 H    2.123566512988    1.336302068738   -1.603889690134
 H    3.298566512988    0.923302068738   -0.305889690134
 C   -1.867433487012   -1.746697931262    0.106110309866
 H   -2.245433487012   -1.719697931262   -0.931889690134
 H   -2.460433487012   -1.047697931262    0.722110309866
 H   -1.977433487012   -2.766697931262    0.506110309866
LI    0.328695043002    0.872459800916    6.107719128689
