14

 P   -0.163442046329    0.134883571943   -0.446310964846
 O   -0.750442046329    1.184883571943    0.508689035154
 O   -0.429442046329    0.182883571943   -1.958310964846
 O    1.499557953671   -0.039116428057   -0.159310964846
 O   -0.478442046329   -1.423116428057    0.145689035154
 C    2.236557953671    1.125883571943   -0.536310964846
 H    1.905557953671    2.008883571943    0.039689035154
 H    2.121557953671    1.336883571943   -1.614310964846
 H    3.296557953671    0.923883571943   -0.316310964846
 C   -1.869442046329   -1.746116428057    0.095689035154
 H   -2.247442046329   -1.719116428057   -0.942310964846
 H   -2.462442046329   -1.047116428057    0.711689035154
 H   -1.979442046329   -2.766116428057    0.495689035154
LI    0.364480467194    0.862099470162    6.293389391480
