14

 P   -0.164446325987    0.135174323546   -0.451521602202
 O   -0.751446325987    1.185174323546    0.503478397798
 O   -0.430446325987    0.183174323546   -1.963521602202
 O    1.498553674013   -0.038825676454   -0.164521602202
 O   -0.479446325987   -1.422825676454    0.140478397798
 C    2.235553674013    1.126174323546   -0.541521602202
 H    1.904553674013    2.009174323546    0.034478397798
 H    2.120553674013    1.337174323546   -1.619521602202
 H    3.295553674013    0.924174323546   -0.321521602202
 C   -1.870446325987   -1.745825676454    0.090478397798
 H   -2.248446325987   -1.718825676454   -0.947521602202
 H   -2.463446325987   -1.046825676454    0.706478397798
 H   -1.980446325987   -2.765825676454    0.490478397798
LI    0.382373179290    0.856919304786    6.386224522875
