14

 P   -0.168463444621    0.136337329956   -0.472364151625
 O   -0.755463444621    1.186337329956    0.482635848375
 O   -0.434463444621    0.184337329956   -1.984364151625
 O    1.494536555379   -0.037662670044   -0.185364151625
 O   -0.483463444621   -1.421662670044    0.119635848375
 C    2.231536555379    1.127337329956   -0.562364151625
 H    1.900536555379    2.010337329956    0.013635848375
 H    2.116536555379    1.338337329956   -1.640364151625
 H    3.291536555379    0.925337329956   -0.342364151625
 C   -1.874463444621   -1.744662670044    0.069635848375
 H   -2.252463444621   -1.717662670044   -0.968364151625
 H   -2.467463444621   -1.045662670044    0.685635848375
 H   -1.984463444621   -2.764662670044    0.469635848375
LI    0.453944027675    0.836198643278    6.757565048457
