14

 P   -0.170472003937    0.136918833161   -0.482785426337
 O   -0.757472003937    1.186918833161    0.472214573663
 O   -0.436472003937    0.184918833161   -1.994785426337
 O    1.492527996063   -0.037081166839   -0.195785426337
 O   -0.485472003937   -1.421081166839    0.109214573663
 C    2.229527996063    1.127918833161   -0.572785426337
 H    1.898527996063    2.010918833161    0.003214573663
 H    2.114527996063    1.338918833161   -1.650785426337
 H    3.289527996063    0.925918833161   -0.352785426337
 C   -1.876472003937   -1.744081166839    0.059214573663
 H   -2.254472003937   -1.717081166839   -0.978785426337
 H   -2.469472003937   -1.045081166839    0.675214573663
 H   -1.986472003937   -2.764081166839    0.459214573663
LI    0.489729451868    0.825838312524    6.943235311248
