14

 P   -0.172480563254    0.137500336366   -0.493206701049
 O   -0.759480563254    1.187500336366    0.461793298951
 O   -0.438480563254    0.185500336366   -2.005206701049
 O    1.490519436746   -0.036499663634   -0.206206701049
 O   -0.487480563254   -1.420499663634    0.098793298951
 C    2.227519436746    1.128500336366   -0.583206701049
 H    1.896519436746    2.011500336366   -0.007206701049
 H    2.112519436746    1.339500336366   -1.661206701049
 H    3.287519436746    0.926500336366   -0.363206701049
 C   -1.878480563254   -1.743499663634    0.048793298951
 H   -2.256480563254   -1.716499663634   -0.989206701049
 H   -2.471480563254   -1.044499663634    0.664793298951
 H   -1.988480563254   -2.763499663634    0.448793298951
LI    0.525514876060    0.815477981771    7.128905574039
