14

 P   -0.173484842913    0.137791087969   -0.498417338405
 O   -0.760484842913    1.187791087969    0.456582661595
 O   -0.439484842913    0.185791087969   -2.010417338405
 O    1.489515157087   -0.036208912031   -0.211417338405
 O   -0.488484842913   -1.420208912031    0.093582661595
 C    2.226515157087    1.128791087969   -0.588417338405
 H    1.895515157087    2.011791087969   -0.012417338405
 H    2.111515157087    1.339791087969   -1.666417338405
 H    3.286515157087    0.926791087969   -0.368417338405
 C   -1.879484842913   -1.743208912031    0.043582661595
 H   -2.257484842913   -1.716208912031   -0.994417338405
 H   -2.472484842913   -1.044208912031    0.659582661595
 H   -1.989484842913   -2.763208912031    0.443582661595
LI    0.543407588156    0.810297816394    7.221740705434
