14

 P   -0.178506241205    0.139244845981   -0.524470525184
 O   -0.765506241205    1.189244845981    0.430529474816
 O   -0.444506241205    0.187244845981   -2.036470525184
 O    1.484493758795   -0.034755154019   -0.237470525184
 O   -0.493506241205   -1.418755154019    0.067529474816
 C    2.221493758795    1.130244845981   -0.614470525184
 H    1.890493758795    2.013244845981   -0.038470525184
 H    2.106493758795    1.341244845981   -1.692470525184
 H    3.281493758795    0.928244845981   -0.394470525184
 C   -1.884506241205   -1.741755154019    0.017529474816
 H   -2.262506241205   -1.714755154019   -1.020470525184
 H   -2.477506241205   -1.042755154019    0.633529474816
 H   -1.994506241205   -2.761755154019    0.417529474816
LI    0.632871148638    0.784396989510    7.685916362411
