14

 P   -0.180514800521    0.139826349186   -0.534891799895
 O   -0.767514800521    1.189826349186    0.420108200105
 O   -0.446514800521    0.187826349186   -2.046891799895
 O    1.482485199479   -0.034173650814   -0.247891799895
 O   -0.495514800521   -1.418173650814    0.057108200105
 C    2.219485199479    1.130826349186   -0.624891799895
 H    1.888485199479    2.013826349186   -0.048891799895
 H    2.104485199479    1.341826349186   -1.702891799895
 H    3.279485199479    0.928826349186   -0.404891799895
 C   -1.886514800521   -1.741173650814    0.007108200105
 H   -2.264514800521   -1.714173650814   -1.030891799895
 H   -2.479514800521   -1.042173650814    0.623108200105
 H   -1.996514800521   -2.761173650814    0.407108200105
LI    0.668656572830    0.774036658756    7.871586625202
