14

 P   -0.185536198813    0.141280107199   -0.560944986675
 O   -0.772536198813    1.191280107199    0.394055013325
 O   -0.451536198813    0.189280107199   -2.072944986675
 O    1.477463801187   -0.032719892801   -0.273944986675
 O   -0.500536198813   -1.416719892801    0.031055013325
 C    2.214463801187    1.132280107199   -0.650944986675
 H    1.883463801187    2.015280107199   -0.074944986675
 H    2.099463801187    1.343280107199   -1.728944986675
 H    3.274463801187    0.930280107199   -0.430944986675
 C   -1.891536198813   -1.739719892801   -0.018944986675
 H   -2.269536198813   -1.712719892801   -1.056944986675
 H   -2.484536198813   -1.040719892801    0.597055013325
 H   -2.001536198813   -2.759719892801    0.381055013325
LI    0.758120133311    0.748135831872    8.335762282180
