14

 P   -0.190557597106    0.142733865211   -0.586998173454
 O   -0.777557597106    1.192733865211    0.368001826546
 O   -0.456557597106    0.190733865211   -2.098998173454
 O    1.472442402894   -0.031266134789   -0.299998173454
 O   -0.505557597106   -1.415266134789    0.005001826546
 C    2.209442402894    1.133733865211   -0.676998173454
 H    1.878442402894    2.016733865211   -0.100998173454
 H    2.094442402894    1.344733865211   -1.754998173454
 H    3.269442402894    0.931733865211   -0.456998173454
 C   -1.896557597106   -1.738266134789   -0.044998173454
 H   -2.274557597106   -1.711266134789   -1.082998173454
 H   -2.489557597106   -1.039266134789    0.571001826546
 H   -2.006557597106   -2.758266134789    0.355001826546
LI    0.847583693792    0.722235004988    8.799937939157
