14

 P   -0.191561876764    0.143024616814   -0.592208810810
 O   -0.778561876764    1.193024616814    0.362791189190
 O   -0.457561876764    0.191024616814   -2.104208810810
 O    1.471438123236   -0.030975383186   -0.305208810810
 O   -0.506561876764   -1.414975383186   -0.000208810810
 C    2.208438123236    1.134024616814   -0.682208810810
 H    1.877438123236    2.017024616814   -0.106208810810
 H    2.093438123236    1.345024616814   -1.760208810810
 H    3.268438123236    0.932024616814   -0.462208810810
 C   -1.897561876764   -1.737975383186   -0.050208810810
 H   -2.275561876764   -1.710975383186   -1.088208810810
 H   -2.490561876764   -1.038975383186    0.565791189190
 H   -2.007561876764   -2.757975383186    0.349791189190
LI    0.865476405888    0.717054839611    8.892773070552
