14

 P   -0.192566156422    0.143315368416   -0.597419448166
 O   -0.779566156422    1.193315368416    0.357580551834
 O   -0.458566156422    0.191315368416   -2.109419448166
 O    1.470433843578   -0.030684631584   -0.310419448166
 O   -0.507566156422   -1.414684631584   -0.005419448166
 C    2.207433843578    1.134315368416   -0.687419448166
 H    1.876433843578    2.017315368416   -0.111419448166
 H    2.092433843578    1.345315368416   -1.765419448166
 H    3.267433843578    0.932315368416   -0.467419448166
 C   -1.898566156422   -1.737684631584   -0.055419448166
 H   -2.276566156422   -1.710684631584   -1.093419448166
 H   -2.491566156422   -1.038684631584    0.560580551834
 H   -2.008566156422   -2.757684631584    0.344580551834
LI    0.883369117985    0.711874674234    8.985608201948
