14

 P   -0.193570436081    0.143606120019   -0.602630085521
 O   -0.780570436081    1.193606120019    0.352369914479
 O   -0.459570436081    0.191606120019   -2.114630085521
 O    1.469429563919   -0.030393879981   -0.315630085521
 O   -0.508570436081   -1.414393879981   -0.010630085521
 C    2.206429563919    1.134606120019   -0.692630085521
 H    1.875429563919    2.017606120019   -0.116630085521
 H    2.091429563919    1.345606120019   -1.770630085521
 H    3.266429563919    0.932606120019   -0.472630085521
 C   -1.899570436081   -1.737393879981   -0.060630085521
 H   -2.277570436081   -1.710393879981   -1.098630085521
 H   -2.492570436081   -1.038393879981    0.555369914479
 H   -2.009570436081   -2.757393879981    0.339369914479
LI    0.901261830081    0.706694508857    9.078443333343
