14

 P   -0.194574715739    0.143896871621   -0.607840722877
 O   -0.781574715739    1.193896871621    0.347159277123
 O   -0.460574715739    0.191896871621   -2.119840722877
 O    1.468425284261   -0.030103128379   -0.320840722877
 O   -0.509574715739   -1.414103128379   -0.015840722877
 C    2.205425284261    1.134896871621   -0.697840722877
 H    1.874425284261    2.017896871621   -0.121840722877
 H    2.090425284261    1.345896871621   -1.775840722877
 H    3.265425284261    0.932896871621   -0.477840722877
 C   -1.900574715739   -1.737103128379   -0.065840722877
 H   -2.278574715739   -1.710103128379   -1.103840722877
 H   -2.493574715739   -1.038103128379    0.550159277123
 H   -2.010574715739   -2.757103128379    0.334159277123
LI    0.919154542177    0.701514343480    9.171278464739
