14

 P   -0.195578995398    0.144187623224   -0.613051360233
 O   -0.782578995398    1.194187623224    0.341948639767
 O   -0.461578995398    0.192187623224   -2.125051360233
 O    1.467421004602   -0.029812376776   -0.326051360233
 O   -0.510578995398   -1.413812376776   -0.021051360233
 C    2.204421004602    1.135187623224   -0.703051360233
 H    1.873421004602    2.018187623224   -0.127051360233
 H    2.089421004602    1.346187623224   -1.781051360233
 H    3.264421004602    0.933187623224   -0.483051360233
 C   -1.901578995398   -1.736812376776   -0.071051360233
 H   -2.279578995398   -1.709812376776   -1.109051360233
 H   -2.494578995398   -1.037812376776    0.544948639767
 H   -2.011578995398   -2.756812376776    0.328948639767
LI    0.937047254273    0.696334178104    9.264113596134
