14

 P   -0.200600393690    0.145641381236   -0.639104547012
 O   -0.787600393690    1.195641381236    0.315895452988
 O   -0.466600393690    0.193641381236   -2.151104547012
 O    1.462399606310   -0.028358618764   -0.352104547012
 O   -0.515600393690   -1.412358618764   -0.047104547012
 C    2.199399606310    1.136641381236   -0.729104547012
 H    1.868399606310    2.019641381236   -0.153104547012
 H    2.084399606310    1.347641381236   -1.807104547012
 H    3.259399606310    0.934641381236   -0.509104547012
 C   -1.906600393690   -1.735358618764   -0.097104547012
 H   -2.284600393690   -1.708358618764   -1.135104547012
 H   -2.499600393690   -1.036358618764    0.518895452988
 H   -2.016600393690   -2.755358618764    0.302895452988
LI    1.026510814754    0.670433351219    9.728289253111
