19

 C    1.063024878959   -5.916707936986    0.000000000000
 C   -0.156815121041   -5.025017936986    0.000000000000
 N   -1.370675121041   -5.646167936986    0.000000000000
 H   -2.201145121041   -5.068957936986    0.000000000000
 H   -1.474995121041   -6.653347936986    0.000000000000
 O   -0.072565121041   -3.785177936986    0.000000000000
 H    1.946424878959   -5.273947936986    0.000000000000
 H    1.076474878959   -6.558647936986    0.892350000000
 H    1.076474878959   -6.558647936986   -0.892350000000
CS    0.016424878959    0.856712063014    0.000000000000
 O    0.035592427363    1.856528348683    0.000000000000
 C    0.119839928147    3.096369325829    0.000000000000
 N    1.333702043853    3.717525214197    0.000000000000
 H    2.164171580856    3.140316934881    0.000000000000
 H    1.438016512997    4.724696875748    0.000000000000
 C   -1.100008504705    3.988064913442    0.000000000000
 H   -1.983396858888    3.345307131618    0.000000000000
 H   -1.113458585264    4.629997653728   -0.892350765048
 H   -1.113458585264    4.629997653728    0.892350765048
