19

 C    1.061672263394   -5.987262973072    0.000000000000
 C   -0.158167736606   -5.095572973072    0.000000000000
 N   -1.372027736606   -5.716722973072    0.000000000000
 H   -2.202497736606   -5.139512973072    0.000000000000
 H   -1.476347736606   -6.723902973072    0.000000000000
 O   -0.073917736606   -3.855732973072    0.000000000000
 H    1.945072263394   -5.344502973072    0.000000000000
 H    1.075122263394   -6.629202973072    0.892350000000
 H    1.075122263394   -6.629202973072   -0.892350000000
CS    0.015072263394    0.786157026928    0.000000000000
 O    0.039990076320    2.085918198297    0.000000000000
 C    0.124237577104    3.325759175443    0.000000000000
 N    1.338099692810    3.946915063811    0.000000000000
 H    2.168569229813    3.369706784495    0.000000000000
 H    1.442414161954    4.954086725362    0.000000000000
 C   -1.095610855748    4.217454763055    0.000000000000
 H   -1.978999209931    3.574696981232    0.000000000000
 H   -1.109060936307    4.859387503342   -0.892350765048
 H   -1.109060936307    4.859387503342    0.892350765048
