19

 C    1.057614416702   -6.198928081333    0.000000000000
 C   -0.162225583298   -5.307238081333    0.000000000000
 N   -1.376085583298   -5.928388081333    0.000000000000
 H   -2.206555583298   -5.351178081333    0.000000000000
 H   -1.480405583298   -6.935568081333    0.000000000000
 O   -0.077975583298   -4.067398081333    0.000000000000
 H    1.941014416702   -5.556168081333    0.000000000000
 H    1.071064416702   -6.840868081333    0.892350000000
 H    1.071064416702   -6.840868081333   -0.892350000000
CS    0.011014416702    0.574491918667    0.000000000000
 O    0.053183023191    2.774087747138    0.000000000000
 C    0.137430523975    4.013928724285    0.000000000000
 N    1.351292639681    4.635084612652    0.000000000000
 H    2.181762176684    4.057876333336    0.000000000000
 H    1.455607108825    5.642256274204    0.000000000000
 C   -1.082417908877    4.905624311897    0.000000000000
 H   -1.965806263060    4.262866530073    0.000000000000
 H   -1.095867989436    5.547557052183   -0.892350765048
 H   -1.095867989436    5.547557052183    0.892350765048
