19

 C    1.054458313719   -6.363556498869    0.000000000000
 C   -0.165381686281   -5.471866498869    0.000000000000
 N   -1.379241686281   -6.093016498869    0.000000000000
 H   -2.209711686281   -5.515806498869    0.000000000000
 H   -1.483561686281   -7.100196498869    0.000000000000
 O   -0.081131686281   -4.232026498869    0.000000000000
 H    1.937858313719   -5.720796498869    0.000000000000
 H    1.067908313719   -7.005496498869    0.892350000000
 H    1.067908313719   -7.005496498869   -0.892350000000
CS    0.007858313719    0.409863501131    0.000000000000
 O    0.063444204091    3.309330729570    0.000000000000
 C    0.147691704875    4.549171706717    0.000000000000
 N    1.361553820581    5.170327595084    0.000000000000
 H    2.192023357584    4.593119315769    0.000000000000
 H    1.465868289724    6.177499256636    0.000000000000
 C   -1.072156727978    5.440867294329    0.000000000000
 H   -1.955545082160    4.798109512505    0.000000000000
 H   -1.085606808536    6.082800034615   -0.892350765048
 H   -1.085606808536    6.082800034615    0.892350765048
