19

 C    1.054007441864   -6.387074844231    0.000000000000
 C   -0.165832558136   -5.495384844231    0.000000000000
 N   -1.379692558136   -6.116534844231    0.000000000000
 H   -2.210162558136   -5.539324844231    0.000000000000
 H   -1.484012558136   -7.123714844231    0.000000000000
 O   -0.081582558136   -4.255544844231    0.000000000000
 H    1.937407441864   -5.744314844231    0.000000000000
 H    1.067457441864   -7.029014844231    0.892350000000
 H    1.067457441864   -7.029014844231   -0.892350000000
CS    0.007407441864    0.386345155769    0.000000000000
 O    0.064910087076    3.385794012775    0.000000000000
 C    0.149157587861    4.625634989921    0.000000000000
 N    1.363019703567    5.246790878289    0.000000000000
 H    2.193489240569    4.669582598973    0.000000000000
 H    1.467334172710    6.253962539840    0.000000000000
 C   -1.070690844992    5.517330577534    0.000000000000
 H   -1.954079199174    4.874572795710    0.000000000000
 H   -1.084140925551    6.159263317820   -0.892350765048
 H   -1.084140925551    6.159263317820    0.892350765048
