19

 C    1.053556570009   -6.410593189593    0.000000000000
 C   -0.166283429991   -5.518903189593    0.000000000000
 N   -1.380143429991   -6.140053189593    0.000000000000
 H   -2.210613429991   -5.562843189593    0.000000000000
 H   -1.484463429991   -7.147233189593    0.000000000000
 O   -0.082033429991   -4.279063189593    0.000000000000
 H    1.936956570009   -5.767833189593    0.000000000000
 H    1.067006570009   -7.052533189593    0.892350000000
 H    1.067006570009   -7.052533189593   -0.892350000000
CS    0.006956570009    0.362826810407    0.000000000000
 O    0.066375970062    3.462257295980    0.000000000000
 C    0.150623470846    4.702098273126    0.000000000000
 N    1.364485586552    5.323254161493    0.000000000000
 H    2.194955123555    4.746045882178    0.000000000000
 H    1.468800055696    6.330425823045    0.000000000000
 C   -1.069224962006    5.593793860738    0.000000000000
 H   -1.952613316189    4.951036078914    0.000000000000
 H   -1.082675042565    6.235726601024   -0.892350765048
 H   -1.082675042565    6.235726601024    0.892350765048
