19

 C    1.052654826300   -6.457629880318    0.000000000000
 C   -0.167185173700   -5.565939880318    0.000000000000
 N   -1.381045173700   -6.187089880318    0.000000000000
 H   -2.211515173700   -5.609879880318    0.000000000000
 H   -1.485365173700   -7.194269880318    0.000000000000
 O   -0.082935173700   -4.326099880318    0.000000000000
 H    1.936054826300   -5.814869880318    0.000000000000
 H    1.066104826300   -7.099569880318    0.892350000000
 H    1.066104826300   -7.099569880318   -0.892350000000
CS    0.006054826300    0.315790119682    0.000000000000
 O    0.069307736033    3.615183862389    0.000000000000
 C    0.153555236818    4.855024839535    0.000000000000
 N    1.367417352524    5.476180727903    0.000000000000
 H    2.197886889526    4.898972448587    0.000000000000
 H    1.471731821667    6.483352389454    0.000000000000
 C   -1.066293196035    5.746720427147    0.000000000000
 H   -1.949681550217    5.103962645324    0.000000000000
 H   -1.079743276594    6.388653167434   -0.892350765048
 H   -1.079743276594    6.388653167434    0.892350765048
