19

 C    1.050851338881   -6.551703261767    0.000000000000
 C   -0.168988661119   -5.660013261767    0.000000000000
 N   -1.382848661119   -6.281163261767    0.000000000000
 H   -2.213318661119   -5.703953261767    0.000000000000
 H   -1.487168661119   -7.288343261767    0.000000000000
 O   -0.084738661119   -4.420173261767    0.000000000000
 H    1.934251338881   -5.908943261767    0.000000000000
 H    1.064301338881   -7.193643261767    0.892350000000
 H    1.064301338881   -7.193643261767   -0.892350000000
CS    0.004251338881    0.221716738233    0.000000000000
 O    0.075171267976    3.921036995207    0.000000000000
 C    0.159418768760    5.160877972354    0.000000000000
 N    1.373280884466    5.782033860721    0.000000000000
 H    2.203750421469    5.204825581405    0.000000000000
 H    1.477595353610    6.789205522273    0.000000000000
 C   -1.060429664092    6.052573559966    0.000000000000
 H   -1.943818018275    5.409815778142    0.000000000000
 H   -1.073879744651    6.694506300252   -0.892350765048
 H   -1.073879744651    6.694506300252    0.892350765048
