19

 C    1.049498723317   -6.622258297854    0.000000000000
 C   -0.170341276683   -5.730568297854    0.000000000000
 N   -1.384201276683   -6.351718297854    0.000000000000
 H   -2.214671276683   -5.774508297854    0.000000000000
 H   -1.488521276683   -7.358898297854    0.000000000000
 O   -0.086091276683   -4.490728297854    0.000000000000
 H    1.932898723317   -5.979498297854    0.000000000000
 H    1.062948723317   -7.264198297854    0.892350000000
 H    1.062948723317   -7.264198297854   -0.892350000000
CS    0.002898723317    0.151161702146    0.000000000000
 O    0.079568916933    4.150426844821    0.000000000000
 C    0.163816417717    5.390267821967    0.000000000000
 N    1.377678533424    6.011423710335    0.000000000000
 H    2.208148070426    5.434215431019    0.000000000000
 H    1.481993002567    7.018595371886    0.000000000000
 C   -1.056032015135    6.281963409580    0.000000000000
 H   -1.939420369317    5.639205627756    0.000000000000
 H   -1.069482095694    6.923896149866   -0.892350765048
 H   -1.069482095694    6.923896149866    0.892350765048
