19

 C    1.048596979607   -6.669294988578    0.000000000000
 C   -0.171243020393   -5.777604988578    0.000000000000
 N   -1.385103020393   -6.398754988578    0.000000000000
 H   -2.215573020393   -5.821544988578    0.000000000000
 H   -1.489423020393   -7.405934988578    0.000000000000
 O   -0.086993020393   -4.537764988578    0.000000000000
 H    1.931996979607   -6.026534988578    0.000000000000
 H    1.062046979607   -7.311234988578    0.892350000000
 H    1.062046979607   -7.311234988578   -0.892350000000
CS    0.001996979607    0.104125011422    0.000000000000
 O    0.082500682904    4.303353411230    0.000000000000
 C    0.166748183689    5.543194388377    0.000000000000
 N    1.380610299395    6.164350276744    0.000000000000
 H    2.211079836398    5.587141997428    0.000000000000
 H    1.484924768538    7.171521938296    0.000000000000
 C   -1.053100249164    6.434889975989    0.000000000000
 H   -1.936488603346    5.792132194165    0.000000000000
 H   -1.066550329723    7.076822716275   -0.892350765048
 H   -1.066550329723    7.076822716275    0.892350765048
