19

 C    1.047695235898   -6.716331679303    0.000000000000
 C   -0.172144764102   -5.824641679303    0.000000000000
 N   -1.386004764102   -6.445791679303    0.000000000000
 H   -2.216474764102   -5.868581679303    0.000000000000
 H   -1.490324764102   -7.452971679303    0.000000000000
 O   -0.087894764102   -4.584801679303    0.000000000000
 H    1.931095235898   -6.073571679303    0.000000000000
 H    1.061145235898   -7.358271679303    0.892350000000
 H    1.061145235898   -7.358271679303   -0.892350000000
CS    0.001095235898    0.057088320697    0.000000000000
 O    0.085432448876    4.456279977639    0.000000000000
 C    0.169679949660    5.696120954786    0.000000000000
 N    1.383542065366    6.317276843153    0.000000000000
 H    2.214011602369    5.740068563838    0.000000000000
 H    1.487856534510    7.324448504705    0.000000000000
 C   -1.050168483192    6.587816542398    0.000000000000
 H   -1.933556837375    5.945058760574    0.000000000000
 H   -1.063618563751    7.229749282684   -0.892350765048
 H   -1.063618563751    7.229749282684    0.892350765048
