19

 C    1.042735645495   -6.975033478287    0.000000000000
 C   -0.177104354505   -6.083343478287    0.000000000000
 N   -1.390964354505   -6.704493478287    0.000000000000
 H   -2.221434354505   -6.127283478287    0.000000000000
 H   -1.495284354505   -7.711673478287    0.000000000000
 O   -0.092854354505   -4.843503478287    0.000000000000
 H    1.926135645495   -6.332273478287    0.000000000000
 H    1.056185645495   -7.616973478287    0.892350000000
 H    1.056185645495   -7.616973478287   -0.892350000000
CS   -0.003864354505   -0.201613478287    0.000000000000
 O    0.101557161718    5.297376092890    0.000000000000
 C    0.185804662503    6.537217070036    0.000000000000
 N    1.399666778209    7.158372958404    0.000000000000
 H    2.230136315211    6.581164679088    0.000000000000
 H    1.503981247352    8.165544619955    0.000000000000
 C   -1.034043770350    7.428912657649    0.000000000000
 H   -1.917432124532    6.786154875825    0.000000000000
 H   -1.047493850909    8.070845397935   -0.892350765048
 H   -1.047493850909    8.070845397935    0.892350765048
