19

 C    1.040030414367   -7.116143550461    0.000000000000
 C   -0.179809585633   -6.224453550461    0.000000000000
 N   -1.393669585633   -6.845603550461    0.000000000000
 H   -2.224139585633   -6.268393550461    0.000000000000
 H   -1.497989585633   -7.852783550461    0.000000000000
 O   -0.095559585633   -4.984613550461    0.000000000000
 H    1.923430414367   -6.473383550461    0.000000000000
 H    1.053480414367   -7.758083550461    0.892350000000
 H    1.053480414367   -7.758083550461   -0.892350000000
CS   -0.006569585633   -0.342723550461    0.000000000000
 O    0.110352459632    5.756155792118    0.000000000000
 C    0.194599960417    6.995996769264    0.000000000000
 N    1.408462076123    7.617152657632    0.000000000000
 H    2.238931613125    7.039944378316    0.000000000000
 H    1.512776545266    8.624324319183    0.000000000000
 C   -1.025248472436    7.887692356876    0.000000000000
 H   -1.908636826618    7.244934575052    0.000000000000
 H   -1.038698552995    8.529625097162   -0.892350765048
 H   -1.038698552995    8.529625097162    0.892350765048
