19

 C    1.038677798803   -7.186698586548    0.000000000000
 C   -0.181162201197   -6.295008586548    0.000000000000
 N   -1.395022201197   -6.916158586548    0.000000000000
 H   -2.225492201197   -6.338948586548    0.000000000000
 H   -1.499342201197   -7.923338586548    0.000000000000
 O   -0.096912201197   -5.055168586548    0.000000000000
 H    1.922077798803   -6.543938586548    0.000000000000
 H    1.052127798803   -7.828638586548    0.892350000000
 H    1.052127798803   -7.828638586548   -0.892350000000
CS   -0.007922201197   -0.413278586548    0.000000000000
 O    0.114750108589    5.985545641731    0.000000000000
 C    0.198997609374    7.225386618878    0.000000000000
 N    1.412859725080    7.846542507245    0.000000000000
 H    2.243329262082    7.269334227930    0.000000000000
 H    1.517174194223    8.853714168797    0.000000000000
 C   -1.020850823479    8.117082206490    0.000000000000
 H   -1.904239177661    7.474324424666    0.000000000000
 H   -1.034300904038    8.759014946776   -0.892350765048
 H   -1.034300904038    8.759014946776    0.892350765048
