19

 C    1.037776055093   -7.233735277272    0.000000000000
 C   -0.182063944907   -6.342045277272    0.000000000000
 N   -1.395923944907   -6.963195277272    0.000000000000
 H   -2.226393944907   -6.385985277272    0.000000000000
 H   -1.500243944907   -7.970375277272    0.000000000000
 O   -0.097813944907   -5.102205277272    0.000000000000
 H    1.921176055093   -6.590975277272    0.000000000000
 H    1.051226055093   -7.875675277272    0.892350000000
 H    1.051226055093   -7.875675277272   -0.892350000000
CS   -0.008823944907   -0.460315277272    0.000000000000
 O    0.117681874561    6.138472208141    0.000000000000
 C    0.201929375345    7.378313185287    0.000000000000
 N    1.415791491051    7.999469073655    0.000000000000
 H    2.246261028054    7.422260794339    0.000000000000
 H    1.520105960194    9.006640735206    0.000000000000
 C   -1.017919057508    8.270008772899    0.000000000000
 H   -1.901307411690    7.627250991075    0.000000000000
 H   -1.031369138066    8.911941513185   -0.892350765048
 H   -1.031369138066    8.911941513185    0.892350765048
