19

 C    1.035972567674   -7.327808658721    0.000000000000
 C   -0.183867432326   -6.436118658721    0.000000000000
 N   -1.397727432326   -7.057268658721    0.000000000000
 H   -2.228197432326   -6.480058658721    0.000000000000
 H   -1.502047432326   -8.064448658721    0.000000000000
 O   -0.099617432326   -5.196278658721    0.000000000000
 H    1.919372567674   -6.685048658721    0.000000000000
 H    1.049422567674   -7.969748658721    0.892350000000
 H    1.049422567674   -7.969748658721   -0.892350000000
CS   -0.010627432326   -0.554388658721    0.000000000000
 O    0.123545406503    6.444325340959    0.000000000000
 C    0.207792907288    7.684166318105    0.000000000000
 N    1.421655022994    8.305322206473    0.000000000000
 H    2.252124559996    7.728113927157    0.000000000000
 H    1.525969492137    9.312493868024    0.000000000000
 C   -1.012055525565    8.575861905718    0.000000000000
 H   -1.895443879747    7.933104123894    0.000000000000
 H   -1.025505606124    9.217794646004   -0.892350765048
 H   -1.025505606124    9.217794646004    0.892350765048
