19

 C    1.034169080255   -7.421882040170    0.000000000000
 C   -0.185670919745   -6.530192040170    0.000000000000
 N   -1.399530919745   -7.151342040170    0.000000000000
 H   -2.230000919745   -6.574132040170    0.000000000000
 H   -1.503850919745   -8.158522040170    0.000000000000
 O   -0.101420919745   -5.290352040170    0.000000000000
 H    1.917569080255   -6.779122040170    0.000000000000
 H    1.047619080255   -8.063822040170    0.892350000000
 H    1.047619080255   -8.063822040170   -0.892350000000
CS   -0.012430919745   -0.648462040170    0.000000000000
 O    0.129408938446    6.750178473777    0.000000000000
 C    0.213656439230    7.990019450924    0.000000000000
 N    1.427518554936    8.611175339291    0.000000000000
 H    2.257988091939    8.033967059976    0.000000000000
 H    1.531833024080    9.618347000843    0.000000000000
 C   -1.006191993622    8.881715038536    0.000000000000
 H   -1.889580347805    8.238957256712    0.000000000000
 H   -1.019642074181    9.523647778822   -0.892350765048
 H   -1.019642074181    9.523647778822    0.892350765048
