19

 C    1.033267336546   -7.468918730895    0.000000000000
 C   -0.186572663454   -6.577228730895    0.000000000000
 N   -1.400432663454   -7.198378730895    0.000000000000
 H   -2.230902663454   -6.621168730895    0.000000000000
 H   -1.504752663454   -8.205558730895    0.000000000000
 O   -0.102322663454   -5.337388730895    0.000000000000
 H    1.916667336546   -6.826158730895    0.000000000000
 H    1.046717336546   -8.110858730895    0.892350000000
 H    1.046717336546   -8.110858730895   -0.892350000000
CS   -0.013332663454   -0.695498730895    0.000000000000
 O    0.132340704417    6.903105040187    0.000000000000
 C    0.216588205202    8.142946017333    0.000000000000
 N    1.430450320908    8.764101905701    0.000000000000
 H    2.260919857911    8.186893626385    0.000000000000
 H    1.534764790051    9.771273567252    0.000000000000
 C   -1.003260227651    9.034641604945    0.000000000000
 H   -1.886648581833    8.391883823121    0.000000000000
 H   -1.016710308210    9.676574345231   -0.892350765048
 H   -1.016710308210    9.676574345231    0.892350765048
