19

 C    1.032816464691   -7.492437076257    0.000000000000
 C   -0.187023535309   -6.600747076257    0.000000000000
 N   -1.400883535309   -7.221897076257    0.000000000000
 H   -2.231353535309   -6.644687076257    0.000000000000
 H   -1.505203535309   -8.229077076257    0.000000000000
 O   -0.102773535309   -5.360907076257    0.000000000000
 H    1.916216464691   -6.849677076257    0.000000000000
 H    1.046266464691   -8.134377076257    0.892350000000
 H    1.046266464691   -8.134377076257   -0.892350000000
CS   -0.013783535309   -0.719017076257    0.000000000000
 O    0.133806587403    6.979568323391    0.000000000000
 C    0.218054088187    8.219409300538    0.000000000000
 N    1.431916203894    8.840565188905    0.000000000000
 H    2.262385740896    8.263356909589    0.000000000000
 H    1.536230673037    9.847736850457    0.000000000000
 C   -1.001794344665    9.111104888150    0.000000000000
 H   -1.885182698847    8.468347106326    0.000000000000
 H   -1.015244425224    9.753037628436   -0.892350765048
 H   -1.015244425224    9.753037628436    0.892350765048
