19

 C    1.032365592837   -7.515955421619    0.000000000000
 C   -0.187474407163   -6.624265421619    0.000000000000
 N   -1.401334407163   -7.245415421619    0.000000000000
 H   -2.231804407163   -6.668205421619    0.000000000000
 H   -1.505654407163   -8.252595421619    0.000000000000
 O   -0.103224407163   -5.384425421619    0.000000000000
 H    1.915765592837   -6.873195421619    0.000000000000
 H    1.045815592837   -8.157895421619    0.892350000000
 H    1.045815592837   -8.157895421619   -0.892350000000
CS   -0.014234407163   -0.742535421619    0.000000000000
 O    0.135272470389    7.056031606596    0.000000000000
 C    0.219519971173    8.295872583742    0.000000000000
 N    1.433382086879    8.917028472110    0.000000000000
 H    2.263851623882    8.339820192794    0.000000000000
 H    1.537696556023    9.924200133661    0.000000000000
 C   -1.000328461680    9.187568171354    0.000000000000
 H   -1.883716815862    8.544810389531    0.000000000000
 H   -1.013778542238    9.829500911641   -0.892350765048
 H   -1.013778542238    9.829500911641    0.892350765048
