19

 C    1.031463849127   -7.562992112344    0.000000000000
 C   -0.188376150873   -6.671302112344    0.000000000000
 N   -1.402236150873   -7.292452112344    0.000000000000
 H   -2.232706150873   -6.715242112344    0.000000000000
 H   -1.506556150873   -8.299632112344    0.000000000000
 O   -0.104126150873   -5.431462112344    0.000000000000
 H    1.914863849127   -6.920232112344    0.000000000000
 H    1.044913849127   -8.204932112344    0.892350000000
 H    1.044913849127   -8.204932112344   -0.892350000000
CS   -0.015136150873   -0.789572112344    0.000000000000
 O    0.138204236360    7.208958173005    0.000000000000
 C    0.222451737144    8.448799150151    0.000000000000
 N    1.436313852851    9.069955038519    0.000000000000
 H    2.266783389853    8.492746759203    0.000000000000
 H    1.540628321994   10.077126700070    0.000000000000
 C   -0.997396695708    9.340494737764    0.000000000000
 H   -1.880785049890    8.697736955940    0.000000000000
 H   -1.010846776267    9.982427478050   -0.892350765048
 H   -1.010846776267    9.982427478050    0.892350765048
