19

 C    1.030111233563   -7.633547148431    0.000000000000
 C   -0.189728766437   -6.741857148431    0.000000000000
 N   -1.403588766437   -7.363007148431    0.000000000000
 H   -2.234058766437   -6.785797148431    0.000000000000
 H   -1.507908766437   -8.370187148431    0.000000000000
 O   -0.105478766437   -5.502017148431    0.000000000000
 H    1.913511233563   -6.990787148431    0.000000000000
 H    1.043561233563   -8.275487148431    0.892350000000
 H    1.043561233563   -8.275487148431   -0.892350000000
CS   -0.016488766437   -0.860127148431    0.000000000000
 O    0.142601885317    7.438348022619    0.000000000000
 C    0.226849386101    8.678188999765    0.000000000000
 N    1.440711501808    9.299344888133    0.000000000000
 H    2.271181038810    8.722136608817    0.000000000000
 H    1.545025970951   10.306516549684    0.000000000000
 C   -0.992999046751    9.569884587377    0.000000000000
 H   -1.876387400933    8.927126805554    0.000000000000
 H   -1.006449127310   10.211817327664   -0.892350765048
 H   -1.006449127310   10.211817327664    0.892350765048
