19

 C    1.029660361708   -7.657065493793    0.000000000000
 C   -0.190179638292   -6.765375493793    0.000000000000
 N   -1.404039638292   -7.386525493793    0.000000000000
 H   -2.234509638292   -6.809315493793    0.000000000000
 H   -1.508359638292   -8.393705493793    0.000000000000
 O   -0.105929638292   -5.525535493793    0.000000000000
 H    1.913060361708   -7.014305493793    0.000000000000
 H    1.043110361708   -8.299005493793    0.892350000000
 H    1.043110361708   -8.299005493793   -0.892350000000
CS   -0.016939638292   -0.883645493793    0.000000000000
 O    0.144067768303    7.514811305823    0.000000000000
 C    0.228315269087    8.754652282970    0.000000000000
 N    1.442177384793    9.375808171337    0.000000000000
 H    2.272646921796    8.798599892022    0.000000000000
 H    1.546491853937   10.382979832889    0.000000000000
 C   -0.991533163765    9.646347870582    0.000000000000
 H   -1.874921517948    9.003590088758    0.000000000000
 H   -1.004983244324   10.288280610868   -0.892350765048
 H   -1.004983244324   10.288280610868    0.892350765048
