19

 C    1.029209489853   -7.680583839155    0.000000000000
 C   -0.190630510147   -6.788893839155    0.000000000000
 N   -1.404490510147   -7.410043839155    0.000000000000
 H   -2.234960510147   -6.832833839155    0.000000000000
 H   -1.508810510147   -8.417223839155    0.000000000000
 O   -0.106380510147   -5.549053839155    0.000000000000
 H    1.912609489853   -7.037823839155    0.000000000000
 H    1.042659489853   -8.322523839155    0.892350000000
 H    1.042659489853   -8.322523839155   -0.892350000000
CS   -0.017390510147   -0.907163839155    0.000000000000
 O    0.145533651288    7.591274589028    0.000000000000
 C    0.229781152073    8.831115566174    0.000000000000
 N    1.443643267779    9.452271454542    0.000000000000
 H    2.274112804782    8.875063175226    0.000000000000
 H    1.547957736922   10.459443116093    0.000000000000
 C   -0.990067280780    9.722811153787    0.000000000000
 H   -1.873455634962    9.080053371963    0.000000000000
 H   -1.003517361339   10.364743894073   -0.892350765048
 H   -1.003517361339   10.364743894073    0.892350765048
