19

 C    1.028307746144   -7.727620529880    0.000000000000
 C   -0.191532253856   -6.835930529880    0.000000000000
 N   -1.405392253856   -7.457080529880    0.000000000000
 H   -2.235862253856   -6.879870529880    0.000000000000
 H   -1.509712253856   -8.464260529880    0.000000000000
 O   -0.107282253856   -5.596090529880    0.000000000000
 H    1.911707746144   -7.084860529880    0.000000000000
 H    1.041757746144   -8.369560529880    0.892350000000
 H    1.041757746144   -8.369560529880   -0.892350000000
CS   -0.018292253856   -0.954200529880    0.000000000000
 O    0.148465417260    7.744201155437    0.000000000000
 C    0.232712918044    8.984042132584    0.000000000000
 N    1.446575033750    9.605198020951    0.000000000000
 H    2.277044570753    9.027989741636    0.000000000000
 H    1.550889502894   10.612369682503    0.000000000000
 C   -0.987135514808    9.875737720196    0.000000000000
 H   -1.870523868991    9.232979938372    0.000000000000
 H   -1.000585595367   10.517670460482   -0.892350765048
 H   -1.000585595367   10.517670460482    0.892350765048
