19

 C    1.027856874289   -7.751138875242    0.000000000000
 C   -0.191983125711   -6.859448875242    0.000000000000
 N   -1.405843125711   -7.480598875242    0.000000000000
 H   -2.236313125711   -6.903388875242    0.000000000000
 H   -1.510163125711   -8.487778875242    0.000000000000
 O   -0.107733125711   -5.619608875242    0.000000000000
 H    1.911256874289   -7.108378875242    0.000000000000
 H    1.041306874289   -8.393078875242    0.892350000000
 H    1.041306874289   -8.393078875242   -0.892350000000
CS   -0.018743125711   -0.977718875242    0.000000000000
 O    0.149931300245    7.820664438642    0.000000000000
 C    0.234178801030    9.060505415788    0.000000000000
 N    1.448040916736    9.681661304156    0.000000000000
 H    2.278510453739    9.104453024840    0.000000000000
 H    1.552355385879   10.688832965707    0.000000000000
 C   -0.985669631823    9.952201003400    0.000000000000
 H   -1.869057986005    9.309443221577    0.000000000000
 H   -0.999119712382   10.594133743687   -0.892350765048
 H   -0.999119712382   10.594133743687    0.892350765048
