19

 C    1.027406002434   -7.774657220604    0.000000000000
 C   -0.192433997566   -6.882967220604    0.000000000000
 N   -1.406293997566   -7.504117220604    0.000000000000
 H   -2.236763997566   -6.926907220604    0.000000000000
 H   -1.510613997566   -8.511297220604    0.000000000000
 O   -0.108183997566   -5.643127220604    0.000000000000
 H    1.910806002434   -7.131897220604    0.000000000000
 H    1.040856002434   -8.416597220604    0.892350000000
 H    1.040856002434   -8.416597220604   -0.892350000000
CS   -0.019193997566   -1.001237220604    0.000000000000
 O    0.151397183231    7.897127721846    0.000000000000
 C    0.235644684016    9.136968698993    0.000000000000
 N    1.449506799722    9.758124587360    0.000000000000
 H    2.279976336724    9.180916308045    0.000000000000
 H    1.553821268865   10.765296248912    0.000000000000
 C   -0.984203748837   10.028664286605    0.000000000000
 H   -1.867592103019    9.385906504781    0.000000000000
 H   -0.997653829396   10.670597026891   -0.892350765048
 H   -0.997653829396   10.670597026891    0.892350765048
