19

 C    1.026504258725   -7.821693911329    0.000000000000
 C   -0.193335741275   -6.930003911329    0.000000000000
 N   -1.407195741275   -7.551153911329    0.000000000000
 H   -2.237665741275   -6.973943911329    0.000000000000
 H   -1.511515741275   -8.558333911329    0.000000000000
 O   -0.109085741275   -5.690163911329    0.000000000000
 H    1.909904258725   -7.178933911329    0.000000000000
 H    1.039954258725   -8.463633911329    0.892350000000
 H    1.039954258725   -8.463633911329   -0.892350000000
CS   -0.020095741275   -1.048273911329    0.000000000000
 O    0.154328949203    8.050054288256    0.000000000000
 C    0.238576449987    9.289895265402    0.000000000000
 N    1.452438565693    9.911051153770    0.000000000000
 H    2.282908102696    9.333842874454    0.000000000000
 H    1.556753034836   10.918222815321    0.000000000000
 C   -0.981271982866   10.181590853014    0.000000000000
 H   -1.864660337048    9.538833071190    0.000000000000
 H   -0.994722063424   10.823523593300   -0.892350765048
 H   -0.994722063424   10.823523593300    0.892350765048
