19

 C    1.026053386870   -7.845212256691    0.000000000000
 C   -0.193786613130   -6.953522256691    0.000000000000
 N   -1.407646613130   -7.574672256691    0.000000000000
 H   -2.238116613130   -6.997462256691    0.000000000000
 H   -1.511966613130   -8.581852256691    0.000000000000
 O   -0.109536613130   -5.713682256691    0.000000000000
 H    1.909453386870   -7.202452256691    0.000000000000
 H    1.039503386870   -8.487152256691    0.892350000000
 H    1.039503386870   -8.487152256691   -0.892350000000
CS   -0.020546613130   -1.071792256691    0.000000000000
 O    0.155794832188    8.126517571460    0.000000000000
 C    0.240042332973    9.366358548607    0.000000000000
 N    1.453904448679    9.987514436974    0.000000000000
 H    2.284373985681    9.410306157659    0.000000000000
 H    1.558218917822   10.994686098526    0.000000000000
 C   -0.979806099880   10.258054136219    0.000000000000
 H   -1.863194454062    9.615296354395    0.000000000000
 H   -0.993256180439   10.899986876505   -0.892350765048
 H   -0.993256180439   10.899986876505    0.892350765048
