19

 C    1.024700771306   -7.915767292778    0.000000000000
 C   -0.195139228694   -7.024077292778    0.000000000000
 N   -1.408999228694   -7.645227292778    0.000000000000
 H   -2.239469228694   -7.068017292778    0.000000000000
 H   -1.513319228694   -8.652407292778    0.000000000000
 O   -0.110889228694   -5.784237292778    0.000000000000
 H    1.908100771306   -7.273007292778    0.000000000000
 H    1.038150771306   -8.557707292778    0.892350000000
 H    1.038150771306   -8.557707292778   -0.892350000000
CS   -0.021899228694   -1.142347292778    0.000000000000
 O    0.160192481145    8.355907421074    0.000000000000
 C    0.244439981930    9.595748398221    0.000000000000
 N    1.458302097636   10.216904286588    0.000000000000
 H    2.288771634638    9.639696007272    0.000000000000
 H    1.562616566779   11.224075948139    0.000000000000
 C   -0.975408450923   10.487443985833    0.000000000000
 H   -1.858796805105    9.844686204009    0.000000000000
 H   -0.988858531482   11.129376726119   -0.892350765048
 H   -0.988858531482   11.129376726119    0.892350765048
