19

 C    1.023799027597   -7.962803983502    0.000000000000
 C   -0.196040972403   -7.071113983502    0.000000000000
 N   -1.409900972403   -7.692263983502    0.000000000000
 H   -2.240370972403   -7.115053983502    0.000000000000
 H   -1.514220972403   -8.699443983502    0.000000000000
 O   -0.111790972403   -5.831273983502    0.000000000000
 H    1.907199027597   -7.320043983502    0.000000000000
 H    1.037249027597   -8.604743983502    0.892350000000
 H    1.037249027597   -8.604743983502   -0.892350000000
CS   -0.022800972403   -1.189383983502    0.000000000000
 O    0.163124247117    8.508833987483    0.000000000000
 C    0.247371747901    9.748674964630    0.000000000000
 N    1.461233863607   10.369830852997    0.000000000000
 H    2.291703400610    9.792622573682    0.000000000000
 H    1.565548332750   11.377002514549    0.000000000000
 C   -0.972476684952   10.640370552242    0.000000000000
 H   -1.855865039134    9.997612770418    0.000000000000
 H   -0.985926765510   11.282303292528   -0.892350765048
 H   -0.985926765510   11.282303292528    0.892350765048
