17

 N   -1.263702646924   -1.683097081125    0.322305776771
 C   -0.053514580080   -1.027890877449    0.326267400739
 N    1.179897834223   -1.626568571911    0.338305685644
 C    2.150321034279   -0.736392430300    0.326433228671
 N    1.947244196866    0.625245703214    0.319598068329
 H    2.751071322117    1.245206242969    0.237610045907
 N    3.475775788516   -1.155067151980    0.248085925436
 H    4.130311993848   -0.623263927580    0.815726702166
 H    3.554580875907   -2.155767295915    0.409669263425
 C    0.687970454549    1.311279406745    0.332551855006
 O    0.660390085444    2.539452491522    0.328463726578
 C   -0.384814671427    0.337586017471    0.338753052946
 N   -1.755887973196    0.523917062784    0.338677868230
 C   -2.249411467707   -0.714685951261    0.328347768565
 H   -3.306909380975   -0.968832573093    0.325401124139
 H   -1.388799643455   -2.689680166357    0.313646225740
 K   -1.753741295048    0.539067318859   -1.261248961820
