17

 N   -1.263757671110   -1.683485416245    0.363315497983
 C   -0.053569604266   -1.028279212569    0.367277121951
 N    1.179842810037   -1.626956907031    0.379315406856
 C    2.150266010093   -0.736780765420    0.367442949883
 N    1.947189172680    0.624857368094    0.360607789541
 H    2.751016297931    1.244817907849    0.278619767119
 N    3.475720764330   -1.155455487100    0.289095646648
 H    4.130256969662   -0.623652262700    0.856736423378
 H    3.554525851721   -2.156155631035    0.450678984637
 C    0.687915430363    1.310891071625    0.373561576218
 O    0.660335061258    2.539064156402    0.369473447790
 C   -0.384869695613    0.337197682351    0.379762774158
 N   -1.755942997382    0.523528727664    0.379687589442
 C   -2.249466491893   -0.715074286381    0.369357489777
 H   -3.306964405161   -0.969220908213    0.366410845351
 H   -1.388854667641   -2.690068501477    0.354655946952
 K   -1.753527984466    0.540572765748   -1.420230094364
