17

 N   -1.263785183203   -1.683679583806    0.383820358589
 C   -0.053597116359   -1.028473380130    0.387781982557
 N    1.179815297944   -1.627151074592    0.399820267462
 C    2.150238498000   -0.736974932981    0.387947810489
 N    1.947161660587    0.624663200533    0.381112650147
 H    2.750988785838    1.244623740288    0.299124627725
 N    3.475693252237   -1.155649654661    0.309600507254
 H    4.130229457569   -0.623846430261    0.877241283984
 H    3.554498339628   -2.156349798596    0.471183845243
 C    0.687887918270    1.310696904064    0.394066436824
 O    0.660307549165    2.538869988841    0.389978308396
 C   -0.384897207706    0.337003514790    0.400267634764
 N   -1.755970509475    0.523334560103    0.400192450048
 C   -2.249494003986   -0.715268453942    0.389862350383
 H   -3.306991917254   -0.969415075774    0.386915705957
 H   -1.388882179734   -2.690262669038    0.375160807558
 K   -1.753421329175    0.541325489193   -1.499720660636
