17

 N   -1.263812695297   -1.683873751366    0.404325219195
 C   -0.053624628453   -1.028667547690    0.408286843163
 N    1.179787785850   -1.627345242152    0.420325128068
 C    2.150210985906   -0.737169100541    0.408452671095
 N    1.947134148493    0.624469032973    0.401617510753
 H    2.750961273744    1.244429572728    0.319629488331
 N    3.475665740143   -1.155843822221    0.330105367860
 H    4.130201945475   -0.624040597821    0.897746144590
 H    3.554470827534   -2.156543966156    0.491688705849
 C    0.687860406176    1.310502736504    0.414571297430
 O    0.660280037071    2.538675821281    0.410483169002
 C   -0.384924719800    0.336809347230    0.420772495370
 N   -1.755998021569    0.523140392543    0.420697310654
 C   -2.249521516080   -0.715462621502    0.410367210989
 H   -3.307019429348   -0.969609243334    0.407420566563
 H   -1.388909691828   -2.690456836598    0.395665668164
 K   -1.753314673884    0.542078212637   -1.579211226908
