17

 N   -1.263867719483   -1.684262086486    0.445334940408
 C   -0.053679652639   -1.029055882810    0.449296564376
 N    1.179732761664   -1.627733577272    0.461334849281
 C    2.150155961720   -0.737557435661    0.449462392308
 N    1.947079124307    0.624080697853    0.442627231966
 H    2.750906249558    1.244041237608    0.360639209544
 N    3.475610715957   -1.156232157341    0.371115089073
 H    4.130146921289   -0.624428932941    0.938755865803
 H    3.554415803348   -2.156932301276    0.532698427062
 C    0.687805381990    1.310114401384    0.455581018643
 O    0.660225012885    2.538287486161    0.451492890215
 C   -0.384979743986    0.336421012110    0.461782216583
 N   -1.756053045755    0.522752057423    0.461707031867
 C   -2.249576540266   -0.715850956622    0.451376932202
 H   -3.307074453534   -0.969997578454    0.448430287776
 H   -1.388964716014   -2.690845171718    0.436675389377
 K   -1.753101363302    0.543583659527   -1.738192359452
