17

 N   -1.263895231577   -1.684456254046    0.465839801014
 C   -0.053707164733   -1.029250050370    0.469801424982
 N    1.179705249570   -1.627927744832    0.481839709887
 C    2.150128449626   -0.737751603221    0.469967252914
 N    1.947051612213    0.623886530293    0.463132092572
 H    2.750878737464    1.243847070048    0.381144070150
 N    3.475583203863   -1.156426324901    0.391619949679
 H    4.130119409195   -0.624623100501    0.959260726409
 H    3.554388291254   -2.157126468836    0.553203287668
 C    0.687777869896    1.309920233824    0.476085879249
 O    0.660197500791    2.538093318601    0.471997750821
 C   -0.385007256080    0.336226844550    0.482287077189
 N   -1.756080557849    0.522557889863    0.482211892473
 C   -2.249604052360   -0.716045124182    0.471881792808
 H   -3.307101965628   -0.970191746014    0.468935148382
 H   -1.388992228108   -2.691039339278    0.457180249983
 K   -1.752994708011    0.544336382971   -1.817682925724
