17

 N   -1.264032792043   -1.685427091847    0.568364104045
 C   -0.053844725199   -1.030220888171    0.572325728013
 N    1.179567689104   -1.628898582633    0.584364012918
 C    2.149990889160   -0.738722441022    0.572491555945
 N    1.946914051747    0.622915692492    0.565656395603
 H    2.750741176998    1.242876232247    0.483668373181
 N    3.475445643397   -1.157397162702    0.494144252710
 H    4.129981848729   -0.625593938302    1.061785029440
 H    3.554250730788   -2.158097306637    0.655727590699
 C    0.687640309430    1.308949396023    0.578610182280
 O    0.660059940325    2.537122480800    0.574522053852
 C   -0.385144816546    0.335256006749    0.584811380220
 N   -1.756218118315    0.521587052062    0.584736195504
 C   -2.249741612826   -0.717015961983    0.574406095839
 H   -3.307239526094   -0.971162583815    0.571459451413
 H   -1.389129788574   -2.692010177079    0.559704553014
 K   -1.752461431557    0.548100000194   -2.215135757084
