17

 N   -1.264087816229   -1.685815426967    0.609373825257
 C   -0.053899749385   -1.030609223291    0.613335449225
 N    1.179512664918   -1.629286917753    0.625373734130
 C    2.149935864974   -0.739110776142    0.613501277157
 N    1.946859027561    0.622527357372    0.606666116815
 H    2.750686152812    1.242487897127    0.524678094393
 N    3.475390619211   -1.157785497822    0.535153973922
 H    4.129926824543   -0.625982273422    1.102794750652
 H    3.554195706602   -2.158485641757    0.696737311911
 C    0.687585285244    1.308561060903    0.619619903492
 O    0.660004916139    2.536734145680    0.615531775064
 C   -0.385199840732    0.334867671629    0.625821101432
 N   -1.756273142501    0.521198716942    0.625745916716
 C   -2.249796637012   -0.717404297103    0.615415817051
 H   -3.307294550280   -0.971550918935    0.612469172625
 H   -1.389184812760   -2.692398512199    0.600714274226
 K   -1.752248120975    0.549605447083   -2.374116889627
