17

 N   -1.264115328323   -1.686009594527    0.629878685864
 C   -0.053927261479   -1.030803390851    0.633840309832
 N    1.179485152824   -1.629481085313    0.645878594737
 C    2.149908352880   -0.739304943702    0.634006137764
 N    1.946831515467    0.622333189812    0.627170977422
 H    2.750658640718    1.242293729567    0.545182955000
 N    3.475363107117   -1.157979665382    0.555658834529
 H    4.129899312449   -0.626176440982    1.123299611259
 H    3.554168194508   -2.158679809317    0.717242172518
 C    0.687557773150    1.308366893343    0.640124764099
 O    0.659977404045    2.536539978120    0.636036635671
 C   -0.385227352826    0.334673504069    0.646325962039
 N   -1.756300654595    0.521004549382    0.646250777323
 C   -2.249824149106   -0.717598464663    0.635920677658
 H   -3.307322062374   -0.971745086495    0.632974033232
 H   -1.389212324854   -2.692592679759    0.621219134833
 K   -1.752141465684    0.550358170528   -2.453607455899
