17

 N   -1.264170352509   -1.686397929647    0.670888407076
 C   -0.053982285665   -1.031191725971    0.674850031044
 N    1.179430128638   -1.629869420433    0.686888315949
 C    2.149853328694   -0.739693278822    0.675015858976
 N    1.946776491281    0.621944854692    0.668180698634
 H    2.750603616532    1.241905394447    0.586192676212
 N    3.475308082931   -1.158368000502    0.596668555741
 H    4.129844288263   -0.626564776102    1.164309332471
 H    3.554113170322   -2.159068144437    0.758251893730
 C    0.687502748964    1.307978558223    0.681134485311
 O    0.659922379859    2.536151643000    0.677046356883
 C   -0.385282377012    0.334285168949    0.687335683251
 N   -1.756355678781    0.520616214262    0.687260498535
 C   -2.249879173292   -0.717986799783    0.676930398870
 H   -3.307377086560   -0.972133421615    0.673983754444
 H   -1.389267349040   -2.692981014879    0.662228856045
 K   -1.751928155102    0.551863617417   -2.612588588443
