17

 N   -1.264225376696   -1.686786264768    0.711898128288
 C   -0.054037309852   -1.031580061092    0.715859752256
 N    1.179375104451   -1.630257755554    0.727898037161
 C    2.149798304507   -0.740081613943    0.716025580188
 N    1.946721467094    0.621556519571    0.709190419846
 H    2.750548592345    1.241517059326    0.627202397424
 N    3.475253058744   -1.158756335623    0.637678276953
 H    4.129789264076   -0.626953111223    1.205319053683
 H    3.554058146135   -2.159456479558    0.799261614942
 C    0.687447724777    1.307590223102    0.722144206523
 O    0.659867355672    2.535763307879    0.718056078095
 C   -0.385337401199    0.333896833828    0.728345404463
 N   -1.756410702968    0.520227879141    0.728270219747
 C   -2.249934197479   -0.718375134904    0.717940120082
 H   -3.307432110747   -0.972521756736    0.714993475656
 H   -1.389322373227   -2.693369350000    0.703238577257
 K   -1.751714844520    0.553369064306   -2.771569720987
