17

 N   -1.264390449255   -1.687951270128    0.834927291926
 C   -0.054202382411   -1.032745066452    0.838888915894
 N    1.179210031892   -1.631422760914    0.850927200799
 C    2.149633231948   -0.741246619303    0.839054743826
 N    1.946556394535    0.620391514211    0.832219583484
 H    2.750383519786    1.240352053966    0.750231561062
 N    3.475087986185   -1.159921340983    0.760707440591
 H    4.129624191517   -0.628118116583    1.328348217321
 H    3.553893073576   -2.160621484918    0.922290778580
 C    0.687282652218    1.306425217742    0.845173370161
 O    0.659702283113    2.534598302519    0.841085241733
 C   -0.385502473758    0.332731828468    0.851374568101
 N   -1.756575775527    0.519062873781    0.851299383385
 C   -2.250099270038   -0.719540140264    0.840969283720
 H   -3.307597183306   -0.973686762096    0.838022639294
 H   -1.389487445786   -2.694534355360    0.826267740895
 K   -1.751074912774    0.557885404974   -3.248513118619
