17

 N   -1.264417961349   -1.688145437689    0.855432152532
 C   -0.054229894505   -1.032939234013    0.859393776500
 N    1.179182519798   -1.631616928475    0.871432061405
 C    2.149605719854   -0.741440786864    0.859559604432
 N    1.946528882441    0.620197346650    0.852724444090
 H    2.750356007692    1.240157886405    0.770736421668
 N    3.475060474091   -1.160115508544    0.781212301197
 H    4.129596679423   -0.628312284144    1.348853077927
 H    3.553865561482   -2.160815652479    0.942795639186
 C    0.687255140124    1.306231050181    0.865678230767
 O    0.659674771019    2.534404134958    0.861590102339
 C   -0.385529985852    0.332537660907    0.871879428707
 N   -1.756603287621    0.518868706220    0.871804243991
 C   -2.250126782132   -0.719734307825    0.861474144326
 H   -3.307624695400   -0.973880929657    0.858527499900
 H   -1.389514957880   -2.694728522921    0.846772601501
 K   -1.750968257483    0.558638128418   -3.328003684890
