17

 N   -1.264445473442   -1.688339605249    0.875937013138
 C   -0.054257406598   -1.033133401573    0.879898637106
 N    1.179155007705   -1.631811096035    0.891936922011
 C    2.149578207761   -0.741634954424    0.880064465038
 N    1.946501370348    0.620003179090    0.873229304696
 H    2.750328495599    1.239963718845    0.791241282274
 N    3.475032961998   -1.160309676104    0.801717161803
 H    4.129569167330   -0.628506451704    1.369357938533
 H    3.553838049389   -2.161009820039    0.963300499792
 C    0.687227628031    1.306036882621    0.886183091373
 O    0.659647258926    2.534209967398    0.882094962945
 C   -0.385557497945    0.332343493347    0.892384289313
 N   -1.756630799714    0.518674538660    0.892309104597
 C   -2.250154294225   -0.719928475385    0.881979004932
 H   -3.307652207493   -0.974075097217    0.879032360506
 H   -1.389542469973   -2.694922690481    0.867277462107
 K   -1.750861602192    0.559390851863   -3.407494251162
