17

 N   -1.264528009722   -1.688922107929    0.937451594957
 C   -0.054339942878   -1.033715904253    0.941413218925
 N    1.179072471425   -1.632393598715    0.953451503830
 C    2.149495671481   -0.742217457104    0.941579046857
 N    1.946418834068    0.619420676410    0.934743886515
 H    2.750245959319    1.239381216165    0.852755864093
 N    3.474950425718   -1.160892178784    0.863231743622
 H    4.129486631050   -0.629088954384    1.430872520352
 H    3.553755513109   -2.161592322719    1.024815081611
 C    0.687145091751    1.305454379941    0.947697673192
 O    0.659564722646    2.533627464718    0.943609544764
 C   -0.385640034225    0.331760990667    0.953898871132
 N   -1.756713335994    0.518092035980    0.953823686416
 C   -2.250236830505   -0.720510978065    0.943493586751
 H   -3.307734743773   -0.974657599897    0.940546942325
 H   -1.389625006253   -2.695505193161    0.928792043926
 K   -1.750541636320    0.561649022197   -3.645965949978
