17

 N   -1.264720594375   -1.690281280850    1.080985619200
 C   -0.054532527531   -1.035075077174    1.084947243168
 N    1.178879886772   -1.633752771636    1.096985528073
 C    2.149303086828   -0.743576630025    1.085113071100
 N    1.946226249415    0.618061503489    1.078277910758
 H    2.750053374666    1.238022043244    0.996289888336
 N    3.474757841065   -1.162251351705    1.006765767865
 H    4.129294046397   -0.630448127305    1.574406544595
 H    3.553562928456   -2.162951495640    1.168349105854
 C    0.686952507098    1.304095207020    1.091231697435
 O    0.659372137993    2.532268291797    1.087143569007
 C   -0.385832618878    0.330401817746    1.097432895375
 N   -1.756905920647    0.516732863059    1.097357710659
 C   -2.250429415158   -0.721870150986    1.087027610994
 H   -3.307927328426   -0.976016772818    1.084080966568
 H   -1.389817590906   -2.696864366082    1.072326068169
 K   -1.749795049283    0.566918086309   -4.202399913882
