17

 N   -1.264748106468   -1.690475448410    1.101490479806
 C   -0.054560039624   -1.035269244734    1.105452103774
 N    1.178852374679   -1.633946939196    1.117490388679
 C    2.149275574735   -0.743770797585    1.105617931706
 N    1.946198737322    0.617867335929    1.098782771364
 H    2.750025862573    1.237827875684    1.016794748942
 N    3.474730328972   -1.162445519265    1.027270628471
 H    4.129266534304   -0.630642294865    1.594911405201
 H    3.553535416363   -2.163145663200    1.188853966460
 C    0.686924995005    1.303901039460    1.111736558041
 O    0.659344625900    2.532074124237    1.107648429613
 C   -0.385860130971    0.330207650186    1.117937755981
 N   -1.756933432740    0.516538695499    1.117862571265
 C   -2.250456927251   -0.722064318546    1.107532471600
 H   -3.307954840519   -0.976210940378    1.104585827174
 H   -1.389845102999   -2.697058533642    1.092830928775
 K   -1.749688393992    0.567670809753   -4.281890480154
