17

 N   -1.264803130655   -1.690863783530    1.142500201019
 C   -0.054615063811   -1.035657579854    1.146461824987
 N    1.178797350492   -1.634335274316    1.158500109892
 C    2.149220550548   -0.744159132705    1.146627652919
 N    1.946143713135    0.617479000809    1.139792492577
 H    2.749970838386    1.237439540564    1.057804470155
 N    3.474675304785   -1.162833854385    1.068280349684
 H    4.129211510117   -0.631030629985    1.635921126414
 H    3.553480392176   -2.163533998320    1.229863687673
 C    0.686869970818    1.303512704340    1.152746279254
 O    0.659289601713    2.531685789117    1.148658150826
 C   -0.385915155158    0.329819315066    1.158947477194
 N   -1.756988456927    0.516150360379    1.158872292478
 C   -2.250511951438   -0.722452653666    1.148542192813
 H   -3.308009864706   -0.976599275498    1.145595548387
 H   -1.389900127186   -2.697446868762    1.133840649988
 K   -1.749475083410    0.569176256642   -4.440871612697
