17

 N   -1.264830642748   -1.691057951090    1.163005061625
 C   -0.054642575904   -1.035851747414    1.166966685593
 N    1.178769838399   -1.634529441876    1.179004970498
 C    2.149193038455   -0.744353300265    1.167132513525
 N    1.946116201042    0.617284833249    1.160297353183
 H    2.749943326293    1.237245373004    1.078309330761
 N    3.474647792692   -1.163028021945    1.088785210290
 H    4.129183998024   -0.631224797545    1.656425987020
 H    3.553452880083   -2.163728165880    1.250368548279
 C    0.686842458725    1.303318536780    1.173251139860
 O    0.659262089620    2.531491621557    1.169163011432
 C   -0.385942667251    0.329625147506    1.179452337800
 N   -1.757015969020    0.515956192819    1.179377153084
 C   -2.250539463531   -0.722646821226    1.169047053419
 H   -3.308037376799   -0.976793443058    1.166100408993
 H   -1.389927639279   -2.697641036322    1.154345510594
 K   -1.749368428119    0.569928980087   -4.520362178969
