17

 N   -1.264858154841   -1.691252118651    1.183509922231
 C   -0.054670087997   -1.036045914975    1.187471546199
 N    1.178742326306   -1.634723609437    1.199509831104
 C    2.149165526362   -0.744547467826    1.187637374131
 N    1.946088688949    0.617090665688    1.180802213789
 H    2.749915814200    1.237051205443    1.098814191367
 N    3.474620280599   -1.163222189506    1.109290070896
 H    4.129156485931   -0.631418965106    1.676930847626
 H    3.553425367990   -2.163922333441    1.270873408885
 C    0.686814946632    1.303124369219    1.193756000466
 O    0.659234577527    2.531297453996    1.189667872038
 C   -0.385970179344    0.329430979945    1.199957198406
 N   -1.757043481113    0.515762025258    1.199882013690
 C   -2.250566975624   -0.722840988787    1.189551914025
 H   -3.308064888892   -0.976987610619    1.186605269599
 H   -1.389955151372   -2.697835203883    1.174850371200
 K   -1.749261772828    0.570681703532   -4.599852745241
