17

 N   -1.264913179028   -1.691640453771    1.224519643443
 C   -0.054725112184   -1.036434250095    1.228481267411
 N    1.178687302119   -1.635111944557    1.240519552316
 C    2.149110502175   -0.744935802946    1.228647095343
 N    1.946033664762    0.616702330568    1.221811935001
 H    2.749860790013    1.236662870323    1.139823912579
 N    3.474565256412   -1.163610524626    1.150299792108
 H    4.129101461744   -0.631807300226    1.717940568838
 H    3.553370343803   -2.164310668561    1.311883130097
 C    0.686759922445    1.302736034099    1.234765721678
 O    0.659179553340    2.530909118876    1.230677593250
 C   -0.386025203531    0.329042644825    1.240966919618
 N   -1.757098505300    0.515373690138    1.240891734902
 C   -2.250621999811   -0.723229323907    1.230561635237
 H   -3.308119913079   -0.977375945739    1.227614990811
 H   -1.390010175559   -2.698223539003    1.215860092412
 K   -1.749048462246    0.572187150421   -4.758833877785
