17

 N   -1.265023227401   -1.692417124011    1.306539085868
 C   -0.054835160557   -1.037210920335    1.310500709836
 N    1.178577253746   -1.635888614797    1.322538994741
 C    2.149000453802   -0.745712473186    1.310666537768
 N    1.945923616389    0.615925660328    1.303831377426
 H    2.749750741640    1.235886200083    1.221843355004
 N    3.474455208039   -1.164387194866    1.232319234533
 H    4.128991413371   -0.632583970466    1.799960011263
 H    3.553260295430   -2.165087338801    1.393902572522
 C    0.686649874072    1.301959363859    1.316785164103
 O    0.659069504967    2.530132448636    1.312697035675
 C   -0.386135251904    0.328265974585    1.322986362043
 N   -1.757208553673    0.514597019898    1.322911177327
 C   -2.250732048184   -0.724005994147    1.312581077662
 H   -3.308229961452   -0.978152615979    1.309634433236
 H   -1.390120223932   -2.699000209243    1.297879534837
 K   -1.748621841083    0.575198044199   -5.076796142873
