17

 N   -1.265050739494   -1.692611291571    1.327043946474
 C   -0.054862672650   -1.037405087895    1.331005570442
 N    1.178549741653   -1.636082782357    1.343043855347
 C    2.148972941709   -0.745906640746    1.331171398374
 N    1.945896104296    0.615731492768    1.324336238032
 H    2.749723229547    1.235692032523    1.242348215610
 N    3.474427695946   -1.164581362426    1.252824095139
 H    4.128963901278   -0.632778138026    1.820464871869
 H    3.553232783337   -2.165281506361    1.414407433128
 C    0.686622361979    1.301765196299    1.337290024709
 O    0.659041992874    2.529938281076    1.333201896281
 C   -0.386162763997    0.328071807025    1.343491222649
 N   -1.757236065766    0.514402852338    1.343416037933
 C   -2.250759560277   -0.724200161707    1.333085938268
 H   -3.308257473545   -0.978346783539    1.330139293842
 H   -1.390147736025   -2.699194376803    1.318384395443
 K   -1.748515185792    0.575950767644   -5.156286709145
