17

 N   -1.265078251587   -1.692805459132    1.347548807081
 C   -0.054890184743   -1.037599255456    1.351510431049
 N    1.178522229560   -1.636276949918    1.363548715954
 C    2.148945429616   -0.746100808307    1.351676258981
 N    1.945868592203    0.615537325207    1.344841098639
 H    2.749695717454    1.235497864962    1.262853076217
 N    3.474400183853   -1.164775529987    1.273328955746
 H    4.128936389185   -0.632972305587    1.840969732476
 H    3.553205271244   -2.165475673922    1.434912293735
 C    0.686594849886    1.301571028738    1.357794885316
 O    0.659014480781    2.529744113515    1.353706756888
 C   -0.386190276090    0.327877639464    1.363996083256
 N   -1.757263577859    0.514208684777    1.363920898540
 C   -2.250787072370   -0.724394329268    1.353590798875
 H   -3.308284985638   -0.978540951100    1.350644154449
 H   -1.390175248118   -2.699388544364    1.338889256050
 K   -1.748408530501    0.576703491088   -5.235777275417
