17

 N   -1.265105763681   -1.692999626692    1.368053667687
 C   -0.054917696837   -1.037793423016    1.372015291655
 N    1.178494717466   -1.636471117478    1.384053576560
 C    2.148917917522   -0.746294975867    1.372181119587
 N    1.945841080109    0.615343157647    1.365345959245
 H    2.749668205360    1.235303697402    1.283357936823
 N    3.474372671759   -1.164969697547    1.293833816352
 H    4.128908877091   -0.633166473147    1.861474593082
 H    3.553177759150   -2.165669841482    1.455417154341
 C    0.686567337792    1.301376861178    1.378299745922
 O    0.658986968687    2.529549945955    1.374211617494
 C   -0.386217788184    0.327683471904    1.384500943862
 N   -1.757291089953    0.514014517217    1.384425759146
 C   -2.250814584464   -0.724588496828    1.374095659481
 H   -3.308312497732   -0.978735118660    1.371149015055
 H   -1.390202760212   -2.699582711924    1.359394116656
 K   -1.748301875210    0.577456214533   -5.315267841689
