17

 N   -1.265325860427   -1.694552967173    1.532092552536
 C   -0.055137793583   -1.039346763497    1.536054176504
 N    1.178274620720   -1.638024457959    1.548092461409
 C    2.148697820776   -0.747848316348    1.536220004436
 N    1.945620983363    0.613789817166    1.529384844094
 H    2.749448108614    1.233750356921    1.447396821672
 N    3.474152575013   -1.166523038028    1.457872701201
 H    4.128688780345   -0.634719813628    2.025513477931
 H    3.552957662404   -2.167223181963    1.619456039190
 C    0.686347241046    1.299823520697    1.542338630771
 O    0.658766871941    2.527996605474    1.538250502343
 C   -0.386437884930    0.326130131423    1.548539828711
 N   -1.757511186699    0.512461176736    1.548464643995
 C   -2.251034681210   -0.726141837309    1.538134544330
 H   -3.308532594478   -0.980288459141    1.535187899904
 H   -1.390422856958   -2.701136052405    1.523433001505
 K   -1.747448632882    0.583478002090   -5.951192371864
