17

 N   -1.265545957173   -1.696106307654    1.696131437386
 C   -0.055357890329   -1.040900103978    1.700093061354
 N    1.178054523974   -1.639577798440    1.712131346259
 C    2.148477724030   -0.749401656829    1.700258889286
 N    1.945400886617    0.612236476685    1.693423728944
 H    2.749228011868    1.232197016440    1.611435706522
 N    3.473932478267   -1.168076378509    1.621911586051
 H    4.128468683599   -0.636273154109    2.189552362781
 H    3.552737565658   -2.168776522444    1.783494924040
 C    0.686127144300    1.298270180216    1.706377515621
 O    0.658546775195    2.526443264993    1.702289387193
 C   -0.386657981676    0.324576790942    1.712578713561
 N   -1.757731283445    0.510907836255    1.712503528845
 C   -2.251254777956   -0.727695177790    1.702173429180
 H   -3.308752691224   -0.981841799622    1.699226784754
 H   -1.390642953704   -2.702689392886    1.687471886355
 K   -1.746595390555    0.589499789646   -6.587116902039
