17

 N   -1.265600981360   -1.696494642774    1.737141158598
 C   -0.055412914516   -1.041288439098    1.741102782566
 N    1.177999499787   -1.639966133560    1.753141067471
 C    2.148422699843   -0.749789991949    1.741268610498
 N    1.945345862430    0.611848141565    1.734433450156
 H    2.749172987681    1.231808681320    1.652445427734
 N    3.473877454080   -1.168464713629    1.662921307263
 H    4.128413659412   -0.636661489229    2.230562083993
 H    3.552682541471   -2.169164857564    1.824504645252
 C    0.686072120113    1.297881845096    1.747387236833
 O    0.658491751008    2.526054929873    1.743299108405
 C   -0.386713005863    0.324188455822    1.753588434773
 N   -1.757786307632    0.510519501135    1.753513250057
 C   -2.251309802143   -0.728083512910    1.743183150392
 H   -3.308807715411   -0.982230134742    1.740236505966
 H   -1.390697977891   -2.703077728006    1.728481607567
 K   -1.746382079973    0.591005236535   -6.746098034583
