17

 N   -1.265628493453   -1.696688810334    1.757646019205
 C   -0.055440426609   -1.041482606658    1.761607643173
 N    1.177971987694   -1.640160301120    1.773645928078
 C    2.148395187750   -0.749984159509    1.761773471105
 N    1.945318350337    0.611653974005    1.754938310763
 H    2.749145475588    1.231614513760    1.672950288341
 N    3.473849941987   -1.168658881189    1.683426167870
 H    4.128386147319   -0.636855656789    2.251066944600
 H    3.552655029378   -2.169359025124    1.845009505859
 C    0.686044608020    1.297687677536    1.767892097440
 O    0.658464238915    2.525860762313    1.763803969012
 C   -0.386740517956    0.323994288262    1.774093295380
 N   -1.757813819725    0.510325333575    1.774018110664
 C   -2.251337314236   -0.728277680470    1.763688010999
 H   -3.308835227504   -0.982424302302    1.760741366573
 H   -1.390725489984   -2.703271895566    1.748986468174
 K   -1.746275424682    0.591757959980   -6.825588600855
