17

 N   -1.265683517639   -1.697077145454    1.798655740417
 C   -0.055495450795   -1.041870941778    1.802617364385
 N    1.177916963508   -1.640548636240    1.814655649290
 C    2.148340163564   -0.750372494629    1.802783192317
 N    1.945263326151    0.611265638885    1.795948031975
 H    2.749090451402    1.231226178640    1.713960009553
 N    3.473794917801   -1.169047216309    1.724435889082
 H    4.128331123133   -0.637243991909    2.292076665812
 H    3.552600005192   -2.169747360244    1.886019227071
 C    0.685989583834    1.297299342416    1.808901818652
 O    0.658409214729    2.525472427193    1.804813690224
 C   -0.386795542142    0.323605953142    1.815103016592
 N   -1.757868843911    0.509936998455    1.815027831876
 C   -2.251392338422   -0.728666015590    1.804697732211
 H   -3.308890251690   -0.982812637422    1.801751087785
 H   -1.390780514170   -2.703660230686    1.789996189386
 K   -1.746062114100    0.593263406869   -6.984569733399
