17

 N   -1.265711029733   -1.697271313015    1.819160601023
 C   -0.055522962889   -1.042065109339    1.823122224991
 N    1.177889451414   -1.640742803801    1.835160509896
 C    2.148312651470   -0.750566662190    1.823288052923
 N    1.945235814057    0.611071471324    1.816452892581
 H    2.749062939308    1.231032011079    1.734464870159
 N    3.473767405707   -1.169241383870    1.744940749688
 H    4.128303611039   -0.637438159470    2.312581526418
 H    3.552572493098   -2.169941527805    1.906524087677
 C    0.685962071740    1.297105174855    1.829406679258
 O    0.658381702635    2.525278259632    1.825318550830
 C   -0.386823054236    0.323411785581    1.835607877198
 N   -1.757896356005    0.509742830894    1.835532692482
 C   -2.251419850516   -0.728860183151    1.825202592817
 H   -3.308917763784   -0.983006804983    1.822255948391
 H   -1.390808026264   -2.703854398247    1.810501049992
 K   -1.745955458809    0.594016130314   -7.064060299671
