17

 N   -1.265848590199   -1.698242150815    1.921684904054
 C   -0.055660523355   -1.043035947139    1.925646528022
 N    1.177751890948   -1.641713641601    1.937684812927
 C    2.148175091004   -0.751537499990    1.925812355954
 N    1.945098253591    0.610100633524    1.918977195612
 H    2.748925378842    1.230061173279    1.836989173190
 N    3.473629845241   -1.170212221670    1.847465052719
 H    4.128166050573   -0.638408997270    2.415105829449
 H    3.552434932632   -2.170912365605    2.009048390708
 C    0.685824511274    1.296134337055    1.931930982289
 O    0.658244142169    2.524307421832    1.927842853861
 C   -0.386960614702    0.322440947781    1.938132180229
 N   -1.758033916471    0.508771993094    1.938056995513
 C   -2.251557410982   -0.729831020951    1.927726895848
 H   -3.309055324250   -0.983977642783    1.924780251422
 H   -1.390945586730   -2.704825236047    1.913025353023
 K   -1.745422182354    0.597779747537   -7.461513131030
