17

 N   -1.265876102292   -1.698436318375    1.942189764660
 C   -0.055688035448   -1.043230114699    1.946151388628
 N    1.177724378855   -1.641907809161    1.958189673533
 C    2.148147578911   -0.751731667550    1.946317216560
 N    1.945070741498    0.609906465964    1.939482056218
 H    2.748897866749    1.229867005719    1.857494033796
 N    3.473602333148   -1.170406389230    1.867969913325
 H    4.128138538480   -0.638603164830    2.435610690055
 H    3.552407420539   -2.171106533165    2.029553251314
 C    0.685796999181    1.295940169495    1.952435842895
 O    0.658216630076    2.524113254272    1.948347714467
 C   -0.386988126795    0.322246780221    1.958637040835
 N   -1.758061428564    0.508577825534    1.958561856119
 C   -2.251584923075   -0.730025188511    1.948231756454
 H   -3.309082836343   -0.984171810343    1.945285112028
 H   -1.390973098823   -2.705019403607    1.933530213629
 K   -1.745315527063    0.598532470981   -7.541003697302
