17

 N   -1.265903614386   -1.698630485935    1.962694625267
 C   -0.055715547542   -1.043424282259    1.966656249235
 N    1.177696866761   -1.642101976721    1.978694534140
 C    2.148120066817   -0.751925835110    1.966822077167
 N    1.945043229404    0.609712298404    1.959986916825
 H    2.748870354655    1.229672838159    1.877998894403
 N    3.473574821054   -1.170600556790    1.888474773932
 H    4.128111026386   -0.638797332390    2.456115550662
 H    3.552379908445   -2.171300700725    2.050058111921
 C    0.685769487087    1.295746001935    1.972940703502
 O    0.658189117982    2.523919086712    1.968852575074
 C   -0.387015638889    0.322052612661    1.979141901442
 N   -1.758088940658    0.508383657974    1.979066716726
 C   -2.251612435169   -0.730219356071    1.968736617061
 H   -3.309110348437   -0.984365977903    1.965789972635
 H   -1.391000610917   -2.705213571167    1.954035074236
 K   -1.745208871772    0.599285194426   -7.620494263574
