17

 N   -1.265958638572   -1.699018821056    2.003704346479
 C   -0.055770571728   -1.043812617380    2.007665970447
 N    1.177641842575   -1.642490311842    2.019704255352
 C    2.148065042631   -0.752314170231    2.007831798379
 N    1.944988205218    0.609323963283    2.000996638037
 H    2.748815330469    1.229284503038    1.919008615615
 N    3.473519796868   -1.170988891911    1.929484495144
 H    4.128056002200   -0.639185667511    2.497125271874
 H    3.552324884259   -2.171689035846    2.091067833133
 C    0.685714462901    1.295357666814    2.013950424714
 O    0.658134093796    2.523530751591    2.009862296286
 C   -0.387070663075    0.321664277540    2.020151622654
 N   -1.758143964844    0.507995322853    2.020076437938
 C   -2.251667459355   -0.730607691192    2.009746338273
 H   -3.309165372623   -0.984754313024    2.006799693847
 H   -1.391055635103   -2.705601906288    1.995044795448
 K   -1.744995561190    0.600790641315   -7.779475396118
