18

 C   -1.021234255111   -3.075593180584    0.000000000000
 H   -1.928584255111   -2.464233180584    0.000000000000
 H   -0.996994255111   -3.733103180584    0.882030000000
 H   -0.996994255111   -3.733103180584   -0.882030000000
 C    0.201585744889   -2.217703180584    0.000000000000
 O    0.194265744889   -0.957373180584    0.000000000000
 O    1.322415744889   -2.910633180584    0.000000000000
 H    2.101915744889   -2.322793180584    0.000000000000
NA   -0.117794255111    0.580516819416    1.727220000000
NA   -0.117794255111    0.580516819416   -1.727220000000
 O   -0.104030603763    0.512667393135    0.000000000000
 C   -0.111350596461    1.772996136046    0.000000000000
 O   -1.232172408798    2.465920708702    0.000000000000
 H   -2.011680942095    1.878087685967    0.000000000000
 C    1.111467743168    2.630885695293    0.000000000000
 H    2.018822716466    2.019525112305    0.000000000000
 H    1.087227452783    3.288393669035   -0.882029383177
 H    1.087227452783    3.288393669035    0.882029383177
