18

 C   -0.970908097878   -3.323606585332    0.000000000000
 H   -1.878258097878   -2.712246585332    0.000000000000
 H   -0.946668097878   -3.981116585332    0.882030000000
 H   -0.946668097878   -3.981116585332   -0.882030000000
 C    0.251911902122   -2.465716585332    0.000000000000
 O    0.244591902122   -1.205386585332    0.000000000000
 O    1.372741902122   -3.158646585332    0.000000000000
 H    2.152241902122   -2.570806585332    0.000000000000
NA   -0.067468097878    0.332503414668    1.727220000000
NA   -0.067468097878    0.332503414668   -1.727220000000
 O   -0.192909409233    0.950672922790    0.000000000000
 C   -0.200229401932    2.211001665701    0.000000000000
 O   -1.321051214269    2.903926238356    0.000000000000
 H   -2.100559747565    2.316093215622    0.000000000000
 C    1.022588937698    3.068891224948    0.000000000000
 H    1.929943910995    2.457530641960    0.000000000000
 H    0.998348647313    3.726399198690   -0.882029383177
 H    0.998348647313    3.726399198690    0.882029383177
