18

 C   -0.963718646844   -3.359037071724    0.000000000000
 H   -1.871068646844   -2.747677071724    0.000000000000
 H   -0.939478646844   -4.016547071724    0.882030000000
 H   -0.939478646844   -4.016547071724   -0.882030000000
 C    0.259101353156   -2.501147071724    0.000000000000
 O    0.251781353156   -1.240817071724    0.000000000000
 O    1.379931353156   -3.194077071724    0.000000000000
 H    2.159431353156   -2.606237071724    0.000000000000
NA   -0.060278646844    0.297072928276    1.727220000000
NA   -0.060278646844    0.297072928276   -1.727220000000
 O   -0.205606381443    1.013245141312    0.000000000000
 C   -0.212926374142    2.273573884223    0.000000000000
 O   -1.333748186479    2.966498456879    0.000000000000
 H   -2.113256719775    2.378665434144    0.000000000000
 C    1.009891965488    3.131463443470    0.000000000000
 H    1.917246938785    2.520102860482    0.000000000000
 H    0.985651675103    3.788971417212   -0.882029383177
 H    0.985651675103    3.788971417212    0.882029383177
