18

 C   -0.956529195811   -3.394467558117    0.000000000000
 H   -1.863879195811   -2.783107558117    0.000000000000
 H   -0.932289195811   -4.051977558117    0.882030000000
 H   -0.932289195811   -4.051977558117   -0.882030000000
 C    0.266290804189   -2.536577558117    0.000000000000
 O    0.258970804189   -1.276247558117    0.000000000000
 O    1.387120804189   -3.229507558117    0.000000000000
 H    2.166620804189   -2.641667558117    0.000000000000
NA   -0.053089195811    0.261642441883    1.727220000000
NA   -0.053089195811    0.261642441883   -1.727220000000
 O   -0.218303353653    1.075817359834    0.000000000000
 C   -0.225623346352    2.336146102745    0.000000000000
 O   -1.346445158689    3.029070675401    0.000000000000
 H   -2.125953691985    2.441237652666    0.000000000000
 C    0.997194993278    3.194035661992    0.000000000000
 H    1.904549966575    2.582675079004    0.000000000000
 H    0.972954702893    3.851543635734   -0.882029383177
 H    0.972954702893    3.851543635734    0.882029383177
