18

 C   -0.934960842711   -3.500759017294    0.000000000000
 H   -1.842310842711   -2.889399017294    0.000000000000
 H   -0.910720842711   -4.158269017294    0.882030000000
 H   -0.910720842711   -4.158269017294   -0.882030000000
 C    0.287859157289   -2.642869017294    0.000000000000
 O    0.280539157289   -1.382539017294    0.000000000000
 O    1.408689157289   -3.335799017294    0.000000000000
 H    2.188189157289   -2.747959017294    0.000000000000
NA   -0.031520842711    0.155350982706    1.727220000000
NA   -0.031520842711    0.155350982706   -1.727220000000
 O   -0.256394270283    1.263534015401    0.000000000000
 C   -0.263714262982    2.523862758311    0.000000000000
 O   -1.384536075319    3.216787330967    0.000000000000
 H   -2.164044608615    2.628954308232    0.000000000000
 C    0.959104076647    3.381752317559    0.000000000000
 H    1.866459049945    2.770391734571    0.000000000000
 H    0.934863786262    4.039260291300   -0.882029383177
 H    0.934863786262    4.039260291300    0.882029383177
