18

 C   -0.927771391678   -3.536189503687    0.000000000000
 H   -1.835121391678   -2.924829503687    0.000000000000
 H   -0.903531391678   -4.193699503687    0.882030000000
 H   -0.903531391678   -4.193699503687   -0.882030000000
 C    0.295048608322   -2.678299503687    0.000000000000
 O    0.287728608322   -1.417969503687    0.000000000000
 O    1.415878608322   -3.371229503687    0.000000000000
 H    2.195378608322   -2.783389503687    0.000000000000
NA   -0.024331391678    0.119920496313    1.727220000000
NA   -0.024331391678    0.119920496313   -1.727220000000
 O   -0.269091242493    1.326106233923    0.000000000000
 C   -0.276411235192    2.586434976833    0.000000000000
 O   -1.397233047529    3.279359549489    0.000000000000
 H   -2.176741580825    2.691526526754    0.000000000000
 C    0.946407104437    3.444324536081    0.000000000000
 H    1.853762077735    2.832963953093    0.000000000000
 H    0.922166814052    4.101832509823   -0.882029383177
 H    0.922166814052    4.101832509823    0.882029383177
