18

 C   -0.920581940644   -3.571619990079    0.000000000000
 H   -1.827931940644   -2.960259990079    0.000000000000
 H   -0.896341940644   -4.229129990079    0.882030000000
 H   -0.896341940644   -4.229129990079   -0.882030000000
 C    0.302238059356   -2.713729990079    0.000000000000
 O    0.294918059356   -1.453399990079    0.000000000000
 O    1.423068059356   -3.406659990079    0.000000000000
 H    2.202568059356   -2.818819990079    0.000000000000
NA   -0.017141940644    0.084490009921    1.727220000000
NA   -0.017141940644    0.084490009921   -1.727220000000
 O   -0.281788214703    1.388678452445    0.000000000000
 C   -0.289108207402    2.649007195356    0.000000000000
 O   -1.409930019739    3.341931768011    0.000000000000
 H   -2.189438553036    2.754098745276    0.000000000000
 C    0.933710132227    3.506896754603    0.000000000000
 H    1.841065105525    2.895536171615    0.000000000000
 H    0.909469841842    4.164404728345   -0.882029383177
 H    0.909469841842    4.164404728345    0.882029383177
