18

 C   -0.913392489611   -3.607050476472    0.000000000000
 H   -1.820742489611   -2.995690476472    0.000000000000
 H   -0.889152489611   -4.264560476472    0.882030000000
 H   -0.889152489611   -4.264560476472   -0.882030000000
 C    0.309427510389   -2.749160476472    0.000000000000
 O    0.302107510389   -1.488830476472    0.000000000000
 O    1.430257510389   -3.442090476472    0.000000000000
 H    2.209757510389   -2.854250476472    0.000000000000
NA   -0.009952489611    0.049059523528    1.727220000000
NA   -0.009952489611    0.049059523528   -1.727220000000
 O   -0.294485186913    1.451250670967    0.000000000000
 C   -0.301805179612    2.711579413878    0.000000000000
 O   -1.422626991949    3.404503986533    0.000000000000
 H   -2.202135525246    2.816670963799    0.000000000000
 C    0.921013160017    3.569468973125    0.000000000000
 H    1.828368133315    2.958108390137    0.000000000000
 H    0.896772869632    4.226976946867   -0.882029383177
 H    0.896772869632    4.226976946867    0.882029383177
