18

 C   -0.891824136511   -3.713341935649    0.000000000000
 H   -1.799174136511   -3.101981935649    0.000000000000
 H   -0.867584136511   -4.370851935649    0.882030000000
 H   -0.867584136511   -4.370851935649   -0.882030000000
 C    0.330995863489   -2.855451935649    0.000000000000
 O    0.323675863489   -1.595121935649    0.000000000000
 O    1.451825863489   -3.548381935649    0.000000000000
 H    2.231325863489   -2.960541935649    0.000000000000
NA    0.011615863489   -0.057231935649    1.727220000000
NA    0.011615863489   -0.057231935649   -1.727220000000
 O   -0.332576103544    1.638967326533    0.000000000000
 C   -0.339896096242    2.899296069444    0.000000000000
 O   -1.460717908579    3.592220642100    0.000000000000
 H   -2.240226441876    3.004387619365    0.000000000000
 C    0.882922243387    3.757185628692    0.000000000000
 H    1.790277216685    3.145825045703    0.000000000000
 H    0.858681953002    4.414693602433   -0.882029383177
 H    0.858681953002    4.414693602433    0.882029383177
