18

 C   -0.884634685477   -3.748772422042    0.000000000000
 H   -1.791984685477   -3.137412422042    0.000000000000
 H   -0.860394685477   -4.406282422042    0.882030000000
 H   -0.860394685477   -4.406282422042   -0.882030000000
 C    0.338185314523   -2.890882422042    0.000000000000
 O    0.330865314523   -1.630552422042    0.000000000000
 O    1.459015314523   -3.583812422042    0.000000000000
 H    2.238515314523   -2.995972422042    0.000000000000
NA    0.018805314523   -0.092662422042    1.727220000000
NA    0.018805314523   -0.092662422042   -1.727220000000
 O   -0.345273075754    1.701539545055    0.000000000000
 C   -0.352593068452    2.961868287966    0.000000000000
 O   -1.473414880789    3.654792860622    0.000000000000
 H   -2.252923414086    3.066959837887    0.000000000000
 C    0.870225271177    3.819757847214    0.000000000000
 H    1.777580244475    3.208397264225    0.000000000000
 H    0.845984980792    4.477265820955   -0.882029383177
 H    0.845984980792    4.477265820955    0.882029383177
