18

 C   -0.877445234444   -3.784202908434    0.000000000000
 H   -1.784795234444   -3.172842908434    0.000000000000
 H   -0.853205234444   -4.441712908434    0.882030000000
 H   -0.853205234444   -4.441712908434   -0.882030000000
 C    0.345374765556   -2.926312908434    0.000000000000
 O    0.338054765556   -1.665982908434    0.000000000000
 O    1.466204765556   -3.619242908434    0.000000000000
 H    2.245704765556   -3.031402908434    0.000000000000
NA    0.025994765556   -0.128092908434    1.727220000000
NA    0.025994765556   -0.128092908434   -1.727220000000
 O   -0.357970047964    1.764111763578    0.000000000000
 C   -0.365290040662    3.024440506488    0.000000000000
 O   -1.486111852999    3.717365079144    0.000000000000
 H   -2.265620386296    3.129532056409    0.000000000000
 C    0.857528298967    3.882330065736    0.000000000000
 H    1.764883272265    3.270969482748    0.000000000000
 H    0.833288008582    4.539838039477   -0.882029383177
 H    0.833288008582    4.539838039477    0.882029383177
