18

 C   -0.870255783411   -3.819633394827    0.000000000000
 H   -1.777605783411   -3.208273394827    0.000000000000
 H   -0.846015783411   -4.477143394827    0.882030000000
 H   -0.846015783411   -4.477143394827   -0.882030000000
 C    0.352564216589   -2.961743394827    0.000000000000
 O    0.345244216589   -1.701413394827    0.000000000000
 O    1.473394216589   -3.654673394827    0.000000000000
 H    2.252894216589   -3.066833394827    0.000000000000
NA    0.033184216589   -0.163523394827    1.727220000000
NA    0.033184216589   -0.163523394827   -1.727220000000
 O   -0.370667020174    1.826683982100    0.000000000000
 C   -0.377987012872    3.087012725010    0.000000000000
 O   -1.498808825209    3.779937297666    0.000000000000
 H   -2.278317358506    3.192104274931    0.000000000000
 C    0.844831326757    3.944902284258    0.000000000000
 H    1.752186300055    3.333541701270    0.000000000000
 H    0.820591036372    4.602410258000   -0.882029383177
 H    0.820591036372    4.602410258000    0.882029383177
