18

 C   -0.841497979277   -3.961355340397    0.000000000000
 H   -1.748847979277   -3.349995340397    0.000000000000
 H   -0.817257979277   -4.618865340397    0.882030000000
 H   -0.817257979277   -4.618865340397   -0.882030000000
 C    0.381322020723   -3.103465340397    0.000000000000
 O    0.374002020723   -1.843135340397    0.000000000000
 O    1.502152020723   -3.796395340397    0.000000000000
 H    2.281652020723   -3.208555340397    0.000000000000
NA    0.061942020723   -0.305245340397    1.727220000000
NA    0.061942020723   -0.305245340397   -1.727220000000
 O   -0.421454909014    2.076972856188    0.000000000000
 C   -0.428774901713    3.337301599099    0.000000000000
 O   -1.549596714049    4.030226171755    0.000000000000
 H   -2.329105247346    3.442393149020    0.000000000000
 C    0.794043437917    4.195191158346    0.000000000000
 H    1.701398411215    3.583830575358    0.000000000000
 H    0.769803147532    4.852699132088   -0.882029383177
 H    0.769803147532    4.852699132088    0.882029383177
