18

 C   -0.812740175144   -4.103077285967    0.000000000000
 H   -1.720090175144   -3.491717285967    0.000000000000
 H   -0.788500175144   -4.760587285967    0.882030000000
 H   -0.788500175144   -4.760587285967   -0.882030000000
 C    0.410079824856   -3.245187285967    0.000000000000
 O    0.402759824856   -1.984857285967    0.000000000000
 O    1.530909824856   -3.938117285967    0.000000000000
 H    2.310409824856   -3.350277285967    0.000000000000
NA    0.090699824856   -0.446967285967    1.727220000000
NA    0.090699824856   -0.446967285967   -1.727220000000
 O   -0.472242797854    2.327261730277    0.000000000000
 C   -0.479562790553    3.587590473187    0.000000000000
 O   -1.600384602890    4.280515045843    0.000000000000
 H   -2.379893136186    3.692682023108    0.000000000000
 C    0.743255549077    4.445480032435    0.000000000000
 H    1.650610522374    3.834119449447    0.000000000000
 H    0.719015258692    5.102988006177   -0.882029383177
 H    0.719015258692    5.102988006177    0.882029383177
