18

 C   -0.791171822044   -4.209368745144    0.000000000000
 H   -1.698521822044   -3.598008745144    0.000000000000
 H   -0.766931822044   -4.866878745144    0.882030000000
 H   -0.766931822044   -4.866878745144   -0.882030000000
 C    0.431648177956   -3.351478745144    0.000000000000
 O    0.424328177956   -2.091148745144    0.000000000000
 O    1.552478177956   -4.044408745144    0.000000000000
 H    2.331978177956   -3.456568745144    0.000000000000
NA    0.112268177956   -0.553258745144    1.727220000000
NA    0.112268177956   -0.553258745144   -1.727220000000
 O   -0.510333714484    2.514978385843    0.000000000000
 C   -0.517653707183    3.775307128754    0.000000000000
 O   -1.638475519520    4.468231701410    0.000000000000
 H   -2.417984052816    3.880398678675    0.000000000000
 C    0.705164632446    4.633196688001    0.000000000000
 H    1.612519605744    4.021836105013    0.000000000000
 H    0.680924342061    5.290704661743   -0.882029383177
 H    0.680924342061    5.290704661743    0.882029383177
