18

 C   -0.783982371010   -4.244799231537    0.000000000000
 H   -1.691332371010   -3.633439231537    0.000000000000
 H   -0.759742371010   -4.902309231537    0.882030000000
 H   -0.759742371010   -4.902309231537   -0.882030000000
 C    0.438837628990   -3.386909231537    0.000000000000
 O    0.431517628990   -2.126579231537    0.000000000000
 O    1.559667628990   -4.079839231537    0.000000000000
 H    2.339167628990   -3.491999231537    0.000000000000
NA    0.119457628990   -0.588689231537    1.727220000000
NA    0.119457628990   -0.588689231537   -1.727220000000
 O   -0.523030686694    2.577550604365    0.000000000000
 C   -0.530350679393    3.837879347276    0.000000000000
 O   -1.651172491730    4.530803919932    0.000000000000
 H   -2.430681025026    3.942970897197    0.000000000000
 C    0.692467660236    4.695768906523    0.000000000000
 H    1.599822633534    4.084408323535    0.000000000000
 H    0.668227369851    5.353276880265   -0.882029383177
 H    0.668227369851    5.353276880265    0.882029383177
