18

 C   -0.776792919977   -4.280229717929    0.000000000000
 H   -1.684142919977   -3.668869717929    0.000000000000
 H   -0.752552919977   -4.937739717929    0.882030000000
 H   -0.752552919977   -4.937739717929   -0.882030000000
 C    0.446027080023   -3.422339717929    0.000000000000
 O    0.438707080023   -2.162009717929    0.000000000000
 O    1.566857080023   -4.115269717929    0.000000000000
 H    2.346357080023   -3.527429717929    0.000000000000
NA    0.126647080023   -0.624119717929    1.727220000000
NA    0.126647080023   -0.624119717929   -1.727220000000
 O   -0.535727658904    2.640122822887    0.000000000000
 C   -0.543047651603    3.900451565798    0.000000000000
 O   -1.663869463940    4.593376138454    0.000000000000
 H   -2.443377997236    4.005543115719    0.000000000000
 C    0.679770688026    4.758341125046    0.000000000000
 H    1.587125661324    4.146980542057    0.000000000000
 H    0.655530397641    5.415849098787   -0.882029383177
 H    0.655530397641    5.415849098787    0.882029383177
