18

 C   -0.733656213777   -4.492812636284    0.000000000000
 H   -1.641006213777   -3.881452636284    0.000000000000
 H   -0.709416213777   -5.150322636284    0.882030000000
 H   -0.709416213777   -5.150322636284   -0.882030000000
 C    0.489163786223   -3.634922636284    0.000000000000
 O    0.481843786223   -2.374592636284    0.000000000000
 O    1.609993786223   -4.327852636284    0.000000000000
 H    2.389493786223   -3.740012636284    0.000000000000
NA    0.169783786223   -0.836702636284    1.727220000000
NA    0.169783786223   -0.836702636284   -1.727220000000
 O   -0.611909492165    3.015556134020    0.000000000000
 C   -0.619229484863    4.275884876931    0.000000000000
 O   -1.740051297200    4.968809449587    0.000000000000
 H   -2.519559830497    4.380976426852    0.000000000000
 C    0.603588854766    5.133774436178    0.000000000000
 H    1.510943828064    4.522413853190    0.000000000000
 H    0.579348564381    5.791282409920   -0.882029383177
 H    0.579348564381    5.791282409920    0.882029383177
