18

 C   -0.683330056543   -4.740826041032    0.000000000000
 H   -1.590680056543   -4.129466041032    0.000000000000
 H   -0.659090056543   -5.398336041032    0.882030000000
 H   -0.659090056543   -5.398336041032   -0.882030000000
 C    0.539489943457   -3.882936041032    0.000000000000
 O    0.532169943457   -2.622606041032    0.000000000000
 O    1.660319943457   -4.575866041032    0.000000000000
 H    2.439819943457   -3.988026041032    0.000000000000
NA    0.220109943457   -1.084716041032    1.727220000000
NA    0.220109943457   -1.084716041032   -1.727220000000
 O   -0.700788297635    3.453561663675    0.000000000000
 C   -0.708108290334    4.713890406586    0.000000000000
 O   -1.828930102670    5.406814979241    0.000000000000
 H   -2.608438635967    4.818981956507    0.000000000000
 C    0.514710049296    5.571779965833    0.000000000000
 H    1.422065022594    4.960419382845    0.000000000000
 H    0.490469758911    6.229287939575   -0.882029383177
 H    0.490469758911    6.229287939575    0.882029383177
