18

 C   -0.676140605510   -4.776256527424    0.000000000000
 H   -1.583490605510   -4.164896527424    0.000000000000
 H   -0.651900605510   -5.433766527424    0.882030000000
 H   -0.651900605510   -5.433766527424   -0.882030000000
 C    0.546679394490   -3.918366527424    0.000000000000
 O    0.539359394490   -2.658036527424    0.000000000000
 O    1.667509394490   -4.611296527424    0.000000000000
 H    2.447009394490   -4.023456527424    0.000000000000
NA    0.227299394490   -1.120146527424    1.727220000000
NA    0.227299394490   -1.120146527424   -1.727220000000
 O   -0.713485269845    3.516133882197    0.000000000000
 C   -0.720805262544    4.776462625108    0.000000000000
 O   -1.841627074881    5.469387197764    0.000000000000
 H   -2.621135608177    4.881554175029    0.000000000000
 C    0.502013077086    5.634352184355    0.000000000000
 H    1.409368050384    5.022991601367    0.000000000000
 H    0.477772786701    6.291860158097   -0.882029383177
 H    0.477772786701    6.291860158097    0.882029383177
