18

 C   -0.674517847039   -4.811719345182    0.000000000000
 H   -1.581867847039   -4.200359345182    0.000000000000
 H   -0.650277847039   -5.469229345182    0.882030000000
 H   -0.650277847039   -5.469229345182   -0.882030000000
 C    0.548302152961   -3.953829345182    0.000000000000
 O    0.540982152961   -2.693499345182    0.000000000000
 O    1.669132152961   -4.646759345182    0.000000000000
 H    2.448632152961   -4.058919345182    0.000000000000
NA    0.228922152961   -1.155609345182    1.727220000000
NA    0.228922152961   -1.155609345182   -1.727220000000
 O   -0.731748934618    3.578673769354    0.000000000000
 C   -0.739068927316    4.839002512265    0.000000000000
 O    0.373628526419    5.544899370772    0.000000000000
 H    1.159912512527    4.966160475164    0.000000000000
 C   -1.971769684873    5.682630410049    0.000000000000
 H   -2.871962116572    5.060771586914    0.000000000000
 H   -1.955168388321    6.340375591837    0.882029383177
 H   -1.955168388321    6.340375591837   -0.882029383177
