18

 C   -0.638570591872   -4.988871777145    0.000000000000
 H   -1.545920591872   -4.377511777145    0.000000000000
 H   -0.614330591872   -5.646381777145    0.882030000000
 H   -0.614330591872   -5.646381777145   -0.882030000000
 C    0.584249408128   -4.130981777145    0.000000000000
 O    0.576929408128   -2.870651777145    0.000000000000
 O    1.705079408128   -4.823911777145    0.000000000000
 H    2.484579408128   -4.236071777145    0.000000000000
NA    0.264869408128   -1.332761777145    1.727220000000
NA    0.264869408128   -1.332761777145   -1.727220000000
 O   -0.795233795668    3.891534861965    0.000000000000
 C   -0.802553788367    5.151863604875    0.000000000000
 O    0.310143665369    5.857760463383    0.000000000000
 H    1.096427651477    5.279021567775    0.000000000000
 C   -2.035254545923    5.995491502660    0.000000000000
 H   -2.935446977622    5.373632679525    0.000000000000
 H   -2.018653249372    6.653236684448    0.882029383177
 H   -2.018653249372    6.653236684448   -0.882029383177
