18

 C   -0.624191689805   -5.059732749930    0.000000000000
 H   -1.531541689805   -4.448372749930    0.000000000000
 H   -0.599951689805   -5.717242749930    0.882030000000
 H   -0.599951689805   -5.717242749930   -0.882030000000
 C    0.598628310195   -4.201842749930    0.000000000000
 O    0.591308310195   -2.941512749930    0.000000000000
 O    1.719458310195   -4.894772749930    0.000000000000
 H    2.498958310195   -4.306932749930    0.000000000000
NA    0.279248310195   -1.403622749930    1.727220000000
NA    0.279248310195   -1.403622749930   -1.727220000000
 O   -0.820627740088    4.016679299009    0.000000000000
 C   -0.827947732787    5.277008041920    0.000000000000
 O    0.284749720948    5.982904900427    0.000000000000
 H    1.071033707057    5.404166004819    0.000000000000
 C   -2.060648490343    6.120635939704    0.000000000000
 H   -2.960840922042    5.498777116569    0.000000000000
 H   -2.044047193792    6.778381121492    0.882029383177
 H   -2.044047193792    6.778381121492   -0.882029383177
