18

 C   -0.609812787739   -5.130593722715    0.000000000000
 H   -1.517162787739   -4.519233722715    0.000000000000
 H   -0.585572787739   -5.788103722715    0.882030000000
 H   -0.585572787739   -5.788103722715   -0.882030000000
 C    0.613007212261   -4.272703722715    0.000000000000
 O    0.605687212261   -3.012373722715    0.000000000000
 O    1.733837212261   -4.965633722715    0.000000000000
 H    2.513337212261   -4.377793722715    0.000000000000
NA    0.293627212261   -1.474483722715    1.727220000000
NA    0.293627212261   -1.474483722715   -1.727220000000
 O   -0.846021684508    4.141823736053    0.000000000000
 C   -0.853341677207    5.402152478964    0.000000000000
 O    0.259355776528    6.108049337471    0.000000000000
 H    1.045639762637    5.529310441864    0.000000000000
 C   -2.086042434763    6.245780376749    0.000000000000
 H   -2.986234866462    5.623921553613    0.000000000000
 H   -2.069441138212    6.903525558536    0.882029383177
 H   -2.069441138212    6.903525558536   -0.882029383177
