18

 C   -0.581054983605   -5.272315668285    0.000000000000
 H   -1.488404983605   -4.660955668285    0.000000000000
 H   -0.556814983605   -5.929825668285    0.882030000000
 H   -0.556814983605   -5.929825668285   -0.882030000000
 C    0.641765016395   -4.414425668285    0.000000000000
 O    0.634445016395   -3.154095668285    0.000000000000
 O    1.762595016395   -5.107355668285    0.000000000000
 H    2.542095016395   -4.519515668285    0.000000000000
NA    0.322385016395   -1.616205668285    1.727220000000
NA    0.322385016395   -1.616205668285   -1.727220000000
 O   -0.896809573348    4.392112610142    0.000000000000
 C   -0.904129566047    5.652441353052    0.000000000000
 O    0.208567887688    6.358338211560    0.000000000000
 H    0.994851873797    5.779599315952    0.000000000000
 C   -2.136830323603    6.496069250837    0.000000000000
 H   -3.037022755303    5.874210427702    0.000000000000
 H   -2.120229027052    7.153814432625    0.882029383177
 H   -2.120229027052    7.153814432625   -0.882029383177
