18

 C   -0.537918277405   -5.484898586640    0.000000000000
 H   -1.445268277405   -4.873538586640    0.000000000000
 H   -0.513678277405   -6.142408586640    0.882030000000
 H   -0.513678277405   -6.142408586640   -0.882030000000
 C    0.684901722595   -4.627008586640    0.000000000000
 O    0.677581722595   -3.366678586640    0.000000000000
 O    1.805731722595   -5.319938586640    0.000000000000
 H    2.585231722595   -4.732098586640    0.000000000000
NA    0.365521722595   -1.828788586640    1.727220000000
NA    0.365521722595   -1.828788586640   -1.727220000000
 O   -0.972991406609    4.767545921274    0.000000000000
 C   -0.980311399307    6.027874664185    0.000000000000
 O    0.132386054428    6.733771522693    0.000000000000
 H    0.918670040536    6.155032627085    0.000000000000
 C   -2.213012156863    6.871502561970    0.000000000000
 H   -3.113204588563    6.249643738835    0.000000000000
 H   -2.196410860312    7.529247743757    0.882029383177
 H   -2.196410860312    7.529247743757   -0.882029383177
