18

 C   -0.530728826372   -5.520329073032    0.000000000000
 H   -1.438078826372   -4.908969073032    0.000000000000
 H   -0.506488826372   -6.177839073032    0.882030000000
 H   -0.506488826372   -6.177839073032   -0.882030000000
 C    0.692091173628   -4.662439073032    0.000000000000
 O    0.684771173628   -3.402109073032    0.000000000000
 O    1.812921173628   -5.355369073032    0.000000000000
 H    2.592421173628   -4.767529073032    0.000000000000
NA    0.372711173628   -1.864219073032    1.727220000000
NA    0.372711173628   -1.864219073032   -1.727220000000
 O   -0.985688378819    4.830118139796    0.000000000000
 C   -0.993008371517    6.090446882707    0.000000000000
 O    0.119689082218    6.796343741215    0.000000000000
 H    0.905973068326    6.217604845607    0.000000000000
 C   -2.225709129074    6.934074780492    0.000000000000
 H   -3.125901560773    6.312215957357    0.000000000000
 H   -2.209107832522    7.591819962279    0.882029383177
 H   -2.209107832522    7.591819962279   -0.882029383177
