18

 C   -0.509160473271   -5.626620532210    0.000000000000
 H   -1.416510473271   -5.015260532210    0.000000000000
 H   -0.484920473271   -6.284130532210    0.882030000000
 H   -0.484920473271   -6.284130532210   -0.882030000000
 C    0.713659526729   -4.768730532210    0.000000000000
 O    0.706339526729   -3.508400532210    0.000000000000
 O    1.834489526729   -5.461660532210    0.000000000000
 H    2.613989526729   -4.873820532210    0.000000000000
NA    0.394279526729   -1.970510532210    1.727220000000
NA    0.394279526729   -1.970510532210   -1.727220000000
 O   -1.023779295449    5.017834795363    0.000000000000
 C   -1.031099288148    6.278163538274    0.000000000000
 O    0.081598165588    6.984060396781    0.000000000000
 H    0.867882151696    6.405321501173    0.000000000000
 C   -2.263800045704    7.121791436058    0.000000000000
 H   -3.163992477403    6.499932612923    0.000000000000
 H   -2.247198749152    7.779536617846    0.882029383177
 H   -2.247198749152    7.779536617846   -0.882029383177
