18

 C   -0.487592120171   -5.732911991387    0.000000000000
 H   -1.394942120171   -5.121551991387    0.000000000000
 H   -0.463352120171   -6.390421991387    0.882030000000
 H   -0.463352120171   -6.390421991387   -0.882030000000
 C    0.735227879829   -4.875021991387    0.000000000000
 O    0.727907879829   -3.614691991387    0.000000000000
 O    1.856057879829   -5.567951991387    0.000000000000
 H    2.635557879829   -4.980111991387    0.000000000000
NA    0.415847879829   -2.076801991387    1.727220000000
NA    0.415847879829   -2.076801991387   -1.727220000000
 O   -1.061870212079    5.205551450929    0.000000000000
 C   -1.069190204778    6.465880193840    0.000000000000
 O    0.043507248958    7.171777052348    0.000000000000
 H    0.829791235066    6.593038156740    0.000000000000
 C   -2.301890962334    7.309508091625    0.000000000000
 H   -3.202083394033    6.687649268489    0.000000000000
 H   -2.285289665783    7.967253273412    0.882029383177
 H   -2.285289665783    7.967253273412   -0.882029383177
