18

 C   -0.480402669138   -5.768342477780    0.000000000000
 H   -1.387752669138   -5.156982477780    0.000000000000
 H   -0.456162669138   -6.425852477780    0.882030000000
 H   -0.456162669138   -6.425852477780   -0.882030000000
 C    0.742417330862   -4.910452477780    0.000000000000
 O    0.735097330862   -3.650122477780    0.000000000000
 O    1.863247330862   -5.603382477780    0.000000000000
 H    2.642747330862   -5.015542477780    0.000000000000
NA    0.423037330862   -2.112232477780    1.727220000000
NA    0.423037330862   -2.112232477780   -1.727220000000
 O   -1.074567184289    5.268123669451    0.000000000000
 C   -1.081887176988    6.528452412362    0.000000000000
 O    0.030810276748    7.234349270870    0.000000000000
 H    0.817094262856    6.655610375262    0.000000000000
 C   -2.314587934544    7.372080310147    0.000000000000
 H   -3.214780366243    6.750221487012    0.000000000000
 H   -2.297986637993    8.029825491934    0.882029383177
 H   -2.297986637993    8.029825491934   -0.882029383177
