18

 C   -0.473213218105   -5.803772964172    0.000000000000
 H   -1.380563218105   -5.192412964172    0.000000000000
 H   -0.448973218105   -6.461282964172    0.882030000000
 H   -0.448973218105   -6.461282964172   -0.882030000000
 C    0.749606781895   -4.945882964172    0.000000000000
 O    0.742286781895   -3.685552964172    0.000000000000
 O    1.870436781895   -5.638812964172    0.000000000000
 H    2.649936781895   -5.050972964172    0.000000000000
NA    0.430226781895   -2.147662964172    1.727220000000
NA    0.430226781895   -2.147662964172   -1.727220000000
 O   -1.087264156499    5.330695887973    0.000000000000
 C   -1.094584149198    6.591024630884    0.000000000000
 O    0.018113304537    7.296921489392    0.000000000000
 H    0.804397290646    6.718182593784    0.000000000000
 C   -2.327284906754    7.434652528669    0.000000000000
 H   -3.227477338453    6.812793705534    0.000000000000
 H   -2.310683610203    8.092397710456    0.882029383177
 H   -2.310683610203    8.092397710456   -0.882029383177
