18

 C   -0.458834316038   -5.874633936957    0.000000000000
 H   -1.366184316038   -5.263273936957    0.000000000000
 H   -0.434594316038   -6.532143936957    0.882030000000
 H   -0.434594316038   -6.532143936957   -0.882030000000
 C    0.763985683962   -5.016743936957    0.000000000000
 O    0.756665683962   -3.756413936957    0.000000000000
 O    1.884815683962   -5.709673936957    0.000000000000
 H    2.664315683962   -5.121833936957    0.000000000000
NA    0.444605683962   -2.218523936957    1.727220000000
NA    0.444605683962   -2.218523936957   -1.727220000000
 O   -1.112658100919    5.455840325018    0.000000000000
 C   -1.119978093618    6.716169067928    0.000000000000
 O   -0.007280639883    7.422065926436    0.000000000000
 H    0.779003346226    6.843327030828    0.000000000000
 C   -2.352678851174    7.559796965713    0.000000000000
 H   -3.252871282873    6.937938142578    0.000000000000
 H   -2.336077554623    8.217542147501    0.882029383177
 H   -2.336077554623    8.217542147501   -0.882029383177
