18

 C   -0.430076511904   -6.016355882527    0.000000000000
 H   -1.337426511904   -5.404995882527    0.000000000000
 H   -0.405836511904   -6.673865882527    0.882030000000
 H   -0.405836511904   -6.673865882527   -0.882030000000
 C    0.792743488096   -5.158465882527    0.000000000000
 O    0.785423488096   -3.898135882527    0.000000000000
 O    1.913573488096   -5.851395882527    0.000000000000
 H    2.693073488096   -5.263555882527    0.000000000000
NA    0.473363488096   -2.360245882527    1.727220000000
NA    0.473363488096   -2.360245882527   -1.727220000000
 O   -1.163445989759    5.706129199106    0.000000000000
 C   -1.170765982458    6.966457942017    0.000000000000
 O   -0.058068528723    7.672354800525    0.000000000000
 H    0.728215457386    7.093615904917    0.000000000000
 C   -2.403466740014    7.810085839802    0.000000000000
 H   -3.303659171714    7.188227016666    0.000000000000
 H   -2.386865443463    8.467831021589    0.882029383177
 H   -2.386865443463    8.467831021589   -0.882029383177
