16

 N   -0.053877499508    1.385492230736    0.033004898827
 C    1.316737912901    1.584966908577    0.029373264451
 H    1.638522209239    2.628711839453    0.050792080144
 C   -0.653592768937    0.132377071183    0.008474908171
 O   -1.871366800469   -0.034565634884    0.009470988945
 N    0.271713246674   -0.904400538659   -0.019181628818
 H   -0.122860461189   -1.842914848508   -0.039690502216
 C    1.677443625069   -0.818361826341   -0.027629679609
 O    2.365764297497   -1.841979048143   -0.055737618162
 C    2.207212806134    0.550027042393    0.000976689525
 C    3.699502699740    0.733885367855   -0.003854120301
 H    3.961050328820    1.802313244723    0.018800047846
 H    4.139647013330    0.275565148433   -0.902962371747
 H    4.150507906449    0.235398882549    0.868082716612
 H   -0.696183722837    2.169745268910    0.052900317117
 K   -3.159320301704   -0.211129132887    0.010524473160
