16

 N   -0.030482895958    1.388699359746    0.032985763163
 C    1.340132516451    1.588174037587    0.029354128787
 H    1.661916812789    2.631918968463    0.050772944480
 C   -0.630198165387    0.135584200193    0.008455772507
 O   -1.847972196919   -0.031358505874    0.009451853281
 N    0.295107850224   -0.901193409649   -0.019200764482
 H   -0.099465857639   -1.839707719498   -0.039709637880
 C    1.700838228619   -0.815154697331   -0.027648815273
 O    2.389158901047   -1.838771919133   -0.055756753826
 C    2.230607409684    0.553234171403    0.000957553861
 C    3.722897303290    0.737092496865   -0.003873255965
 H    3.984444932370    1.805520373733    0.018780912182
 H    4.163041616880    0.278772277443   -0.902981507411
 H    4.173902509999    0.238606011559    0.868063580948
 H   -0.672789119287    2.172952397920    0.052881181453
 K   -3.234999044403   -0.221503811416    0.010586374744
