16

 N    1.981453009345    1.664512454596    0.031340096050
 C    3.352068421754    1.863987132437    0.027708461674
 H    3.673852718092    2.907732063313    0.049127277367
 C    1.381737739916    0.411397295043    0.006810105394
 O    0.163963708384    0.244454588976    0.007806186168
 N    2.307043755527   -0.625380314799   -0.020846431595
 H    1.912470047664   -1.563894624648   -0.041355304993
 C    3.712774133922   -0.539341602481   -0.029294482386
 O    4.401094806350   -1.562958824283   -0.057402420939
 C    4.242543314987    0.829047266253   -0.000688113252
 C    5.734833208593    1.012905591715   -0.005518923078
 H    5.996380837673    2.081333468583    0.017135245069
 H    6.174977522183    0.554585372293   -0.904627174524
 H    6.185838415302    0.514419106409    0.866417913835
 H    1.339146786016    2.448765492770    0.051235514340
 K   -9.743370916501   -1.113726164894    0.015909910904
