16

 N    0.109884725343    1.407942133805    0.032870949178
 C    1.480500137752    1.607416811646    0.029239314802
 H    1.802284434090    2.651161742522    0.050658130495
 C   -0.489830544086    0.154826974252    0.008340958522
 O   -1.707604575618   -0.012115731815    0.009337039296
 N    0.435475471525   -0.881950635590   -0.019315578467
 H    0.040901763662   -1.820464945439   -0.039824451865
 C    1.841205849920   -0.795911923272   -0.027763629258
 O    2.529526522348   -1.819529145074   -0.055871567811
 C    2.370975030985    0.572476945462    0.000842739876
 C    3.863264924591    0.756335270924   -0.003988069950
 H    4.124812553671    1.824763147792    0.018666098197
 H    4.303409238181    0.298015051502   -0.903096321396
 H    4.314270131300    0.257848785618    0.867948766963
 H   -0.532421497986    2.192195171979    0.052766367468
 K   -3.689071500595   -0.283751882589    0.010957784243
