16

 N    0.133279328893    1.411149262815    0.032851813514
 C    1.503894741302    1.610623940656    0.029220179138
 H    1.825679037640    2.654368871532    0.050638994831
 C   -0.466435940536    0.158034103262    0.008321822858
 O   -1.684209972068   -0.008908602805    0.009317903632
 N    0.458870075075   -0.878743506580   -0.019334714131
 H    0.064296367212   -1.817257816429   -0.039843587529
 C    1.864600453470   -0.792704794262   -0.027782764922
 O    2.552921125898   -1.816322016064   -0.055890703475
 C    2.394369634535    0.575684074472    0.000823604212
 C    3.886659528141    0.759542399934   -0.004007205614
 H    4.148207157221    1.827970276802    0.018646962533
 H    4.326803841731    0.301222180512   -0.903115457060
 H    4.337664734850    0.261055914628    0.867929631299
 H   -0.509026894436    2.195402300989    0.052747231804
 K   -3.764750243294   -0.294126561117    0.011019685826
