16

 N    0.203463139543    1.420770649845    0.032794406522
 C    1.574078551952    1.620245327686    0.029162772146
 H    1.895862848290    2.663990258562    0.050581587839
 C   -0.396252129886    0.167655490292    0.008264415866
 O   -1.614026161418    0.000712784225    0.009260496640
 N    0.529053885725   -0.869122119550   -0.019392121123
 H    0.134480177862   -1.807636429399   -0.039900994521
 C    1.934784264120   -0.783083407232   -0.027840171914
 O    2.623104936548   -1.806700629034   -0.055948110467
 C    2.464553445185    0.585305461502    0.000766197220
 C    3.956843338791    0.769163786964   -0.004064612606
 H    4.218390967871    1.837591663832    0.018589555541
 H    4.396987652381    0.310843567542   -0.903172864052
 H    4.407848545500    0.270677301658    0.867872224307
 H   -0.438843083786    2.205023688019    0.052689824812
 K   -3.991786471391   -0.325250596704    0.011205390576
