16

 N    0.297041553743    1.433599165885    0.032717863865
 C    1.667656966152    1.633073843726    0.029086229489
 H    1.989441262490    2.676818774602    0.050505045182
 C   -0.302673715686    0.180484006332    0.008187873209
 O   -1.520447747218    0.013541300265    0.009183953983
 N    0.622632299925   -0.856293603510   -0.019468663780
 H    0.228058592062   -1.794807913359   -0.039977537178
 C    2.028362678320   -0.770254891192   -0.027916714571
 O    2.716683350748   -1.793872112994   -0.056024653124
 C    2.558131859385    0.598133977542    0.000689654563
 C    4.050421752991    0.781992303004   -0.004141155263
 H    4.311969382071    1.850420179872    0.018513012884
 H    4.490566066581    0.323672083582   -0.903249406709
 H    4.501426959700    0.283505817698    0.867795681650
 H   -0.345264669586    2.217852204059    0.052613282155
 K   -4.294501442186   -0.366749310819    0.011452996909
