16

 N    0.320436157293    1.436806294894    0.032698728201
 C    1.691051569702    1.636280972735    0.029067093825
 H    2.012835866040    2.680025903611    0.050485909518
 C   -0.279279112136    0.183691135341    0.008168737545
 O   -1.497053143668    0.016748429274    0.009164818319
 N    0.646026903475   -0.853086474501   -0.019487799444
 H    0.251453195612   -1.791600784350   -0.039996672842
 C    2.051757281870   -0.767047762183   -0.027935850235
 O    2.740077954298   -1.790664983985   -0.056043788788
 C    2.581526462935    0.601341106551    0.000670518899
 C    4.073816356541    0.785199432013   -0.004160290927
 H    4.335363985621    1.853627308881    0.018493877220
 H    4.513960670131    0.326879212591   -0.903268542373
 H    4.524821563250    0.286712946707    0.867776545986
 H   -0.321870066036    2.221059333068    0.052594146491
 K   -4.370180184885   -0.377123989348    0.011514898492
