16

 N    0.437409175043    1.452841939944    0.032603049881
 C    1.808024587452    1.652316617785    0.028971415505
 H    2.129808883790    2.696061548661    0.050390231198
 C   -0.162306094386    0.199726780391    0.008073059225
 O   -1.380080125918    0.032784074324    0.009069139999
 N    0.762999921225   -0.837050829451   -0.019583477764
 H    0.368426213362   -1.775565139300   -0.040092351162
 C    2.168730299620   -0.751012117133   -0.028031528555
 O    2.857050972048   -1.774629338935   -0.056139467108
 C    2.698499480685    0.617376751601    0.000574840579
 C    4.190789374291    0.801235077063   -0.004255969247
 H    4.452337003371    1.869662953931    0.018398198900
 H    4.630933687881    0.342914857641   -0.903364220693
 H    4.641794581000    0.302748591757    0.867680867666
 H   -0.204897048286    2.237094978118    0.052498468171
 K   -4.748573898379   -0.428997381992    0.011824406409
