16

 N    0.530987589243    1.465670455983    0.032526507224
 C    1.901603001652    1.665145133824    0.028894872848
 H    2.223387297990    2.708890064700    0.050313688541
 C   -0.068727680186    0.212555296430    0.007996516568
 O   -1.286501711718    0.045612590363    0.008992597342
 N    0.856578335425   -0.824222313412   -0.019660020421
 H    0.462004627562   -1.762736623261   -0.040168893819
 C    2.262308713820   -0.738183601094   -0.028108071212
 O    2.950629386248   -1.761800822896   -0.056216009765
 C    2.792077894885    0.630205267640    0.000498297922
 C    4.284367788491    0.814063593102   -0.004332511904
 H    4.545915417571    1.882491469970    0.018321656243
 H    4.724512102081    0.355743373680   -0.903440763350
 H    4.735372995200    0.315577107796    0.867604325009
 H   -0.111318634086    2.249923494157    0.052421925514
 K   -5.051288869174   -0.470496096107    0.012072012742
