16

 N    0.554382192793    1.468877584993    0.032507371560
 C    1.924997605202    1.668352262834    0.028875737184
 H    2.246781901540    2.712097193710    0.050294552877
 C   -0.045333076636    0.215762425440    0.007977380904
 O   -1.263107108168    0.048819719373    0.008973461678
 N    0.879972938975   -0.821015184402   -0.019679156085
 H    0.485399231112   -1.759529494251   -0.040188029483
 C    2.285703317370   -0.734976472084   -0.028127206876
 O    2.974023989798   -1.758593693886   -0.056235145429
 C    2.815472498435    0.633412396650    0.000479162258
 C    4.307762392041    0.817270722112   -0.004351647568
 H    4.569310021121    1.885698598980    0.018302520579
 H    4.747906705631    0.358950502690   -0.903459899014
 H    4.758767598750    0.318784236806    0.867585189345
 H   -0.087924030536    2.253130623167    0.052402789850
 K   -5.126967611873   -0.480870774636    0.012133914325
