16

 N    0.577776796343    1.472084714003    0.032488235896
 C    1.948392208752    1.671559391844    0.028856601520
 H    2.270176505090    2.715304322720    0.050275417213
 C   -0.021938473086    0.218969554450    0.007958245240
 O   -1.239712504618    0.052026848383    0.008954326014
 N    0.903367542525   -0.817808055392   -0.019698291749
 H    0.508793834662   -1.756322365241   -0.040207165147
 C    2.309097920920   -0.731769343074   -0.028146342540
 O    2.997418593348   -1.755386564876   -0.056254281093
 C    2.838867101985    0.636619525660    0.000460026594
 C    4.331156995591    0.820477851122   -0.004370783232
 H    4.592704624671    1.888905727990    0.018283384915
 H    4.771301309181    0.362157631700   -0.903479034678
 H    4.782162202300    0.321991365816    0.867566053681
 H   -0.064529426986    2.256337752177    0.052383654186
 K   -5.202646354572   -0.491245453165    0.012195815908
