16

 N    0.647960606993    1.481706101033    0.032430828904
 C    2.018576019402    1.681180778874    0.028799194528
 H    2.340360315740    2.724925709750    0.050218010221
 C    0.048245337564    0.228590941480    0.007900838248
 O   -1.169528693968    0.061648235413    0.008896919022
 N    0.973551353175   -0.808186668362   -0.019755698741
 H    0.578977645312   -1.746700978211   -0.040264572139
 C    2.379281731570   -0.722147956044   -0.028203749532
 O    3.067602403998   -1.745765177846   -0.056311688085
 C    2.909050912635    0.646240912690    0.000402619602
 C    4.401340806241    0.830099238152   -0.004428190224
 H    4.662888435321    1.898527115020    0.018225977923
 H    4.841485119831    0.371779018730   -0.903536441670
 H    4.852346012950    0.331612752846    0.867508646689
 H    0.005654383664    2.265959139207    0.052326247194
 K   -5.429682582668   -0.522369488751    0.012381520658
