16

 N    0.694749814094    1.488120359053    0.032392557576
 C    2.065365226503    1.687595036894    0.028760923200
 H    2.387149522841    2.731339967770    0.050179738893
 C    0.095034544665    0.235005199500    0.007862566920
 O   -1.122739486867    0.068062493433    0.008858647694
 N    1.020340560276   -0.801772410342   -0.019793970069
 H    0.625766852413   -1.740286720191   -0.040302843467
 C    2.426070938671   -0.715733698024   -0.028242020860
 O    3.114391611099   -1.739350919826   -0.056349959413
 C    2.955840119736    0.652655170710    0.000364348274
 C    4.448130013342    0.836513496172   -0.004466461552
 H    4.709677642422    1.904941373040    0.018187706595
 H    4.888274326932    0.378193276750   -0.903574712998
 H    4.899135220051    0.338027010866    0.867470375361
 H    0.052443590765    2.272373397227    0.052287975866
 K   -5.581040068066   -0.543118845809    0.012505323825
