16

 N    0.788328228294    1.500948875092    0.032316014919
 C    2.158943640703    1.700423552933    0.028684380543
 H    2.480727937041    2.744168483809    0.050103196236
 C    0.188612958865    0.247833715539    0.007786024263
 O   -1.029161072667    0.080891009472    0.008782105037
 N    1.113918974476   -0.788943894303   -0.019870512726
 H    0.719345266613   -1.727458204152   -0.040379386124
 C    2.519649352871   -0.702905181985   -0.028318563517
 O    3.207970025299   -1.726522403787   -0.056426502070
 C    3.049418533936    0.665483686749    0.000287805617
 C    4.541708427542    0.849342012211   -0.004543004209
 H    4.803256056622    1.917769889079    0.018111163938
 H    4.981852741132    0.391021792789   -0.903651255655
 H    4.992713634251    0.350855526905    0.867393832704
 H    0.146022004965    2.285201913266    0.052211433209
 K   -5.883755038861   -0.584617559924    0.012752930158
