16

 N    0.835117435394    1.507363133112    0.032277743591
 C    2.205732847803    1.706837810953    0.028646109215
 H    2.527517144141    2.750582741829    0.050064924908
 C    0.235402165965    0.254247973559    0.007747752935
 O   -0.982371865567    0.087305267492    0.008743833709
 N    1.160708181576   -0.782529636283   -0.019908784054
 H    0.766134473713   -1.721043946132   -0.040417657452
 C    2.566438559971   -0.696490923965   -0.028356834845
 O    3.254759232399   -1.720108145767   -0.056464773398
 C    3.096207741036    0.671897944769    0.000249534289
 C    4.588497634642    0.855756270231   -0.004581275537
 H    4.850045263722    1.924184147099    0.018072892610
 H    5.028641948232    0.397436050809   -0.903689526983
 H    5.039502841351    0.357269784925    0.867355561376
 H    0.192811212065    2.291616171286    0.052173161881
 K   -6.035112524259   -0.605366916982    0.012876733324
