16

 N    0.905301246044    1.516984520141    0.032220336599
 C    2.275916658453    1.716459197982    0.028588702223
 H    2.597700954791    2.760204128858    0.050007517916
 C    0.305585976615    0.263869360588    0.007690345943
 O   -0.912188054917    0.096926654521    0.008686426717
 N    1.230891992226   -0.772908249254   -0.019966191046
 H    0.836318284363   -1.711422559103   -0.040475064444
 C    2.636622370621   -0.686869536936   -0.028414241837
 O    3.324943043049   -1.710486758738   -0.056522180390
 C    3.166391551686    0.681519331798    0.000192127297
 C    4.658681445292    0.865377657260   -0.004638682529
 H    4.920229074372    1.933805534128    0.018015485618
 H    5.098825758882    0.407057437838   -0.903746933975
 H    5.109686652001    0.366891171954    0.867298154384
 H    0.262995022715    2.301237558315    0.052115754889
 K   -6.262148752356   -0.636490952568    0.013062438074
