16

 N    0.928695849594    1.520191649151    0.032201200935
 C    2.299311262003    1.719666326992    0.028569566559
 H    2.621095558341    2.763411257868    0.049988382252
 C    0.328980580165    0.267076489598    0.007671210279
 O   -0.888793451367    0.100133783531    0.008667291053
 N    1.254286595776   -0.769701120244   -0.019985326710
 H    0.859712887913   -1.708215430093   -0.040494200108
 C    2.660016974171   -0.683662407926   -0.028433377501
 O    3.348337646599   -1.707279629728   -0.056541316054
 C    3.189786155236    0.684726460808    0.000172991633
 C    4.682076048842    0.868584786270   -0.004657818193
 H    4.943623677922    1.937012663138    0.017996349954
 H    5.122220362432    0.410264566848   -0.903766069639
 H    5.133081255551    0.370098300964    0.867279018720
 H    0.286389626265    2.304444687325    0.052096619225
 K   -6.337827495054   -0.646865631097    0.013124339657
