16

 N    0.952090453144    1.523398778161    0.032182065271
 C    2.322705865553    1.722873456002    0.028550430895
 H    2.644490161891    2.766618386878    0.049969246588
 C    0.352375183715    0.270283618608    0.007652074615
 O   -0.865398847817    0.103340912541    0.008648155389
 N    1.277681199326   -0.766493991234   -0.020004462374
 H    0.883107491463   -1.705008301083   -0.040513335772
 C    2.683411577721   -0.680455278916   -0.028452513165
 O    3.371732250149   -1.704072500718   -0.056560451718
 C    3.213180758786    0.687933589818    0.000153855969
 C    4.705470652392    0.871791915280   -0.004676953857
 H    4.967018281472    1.940219792148    0.017977214290
 H    5.145614965982    0.413471695858   -0.903785205303
 H    5.156475859101    0.373305429974    0.867259883056
 H    0.309784229815    2.307651816335    0.052077483561
 K   -6.413506237753   -0.657240309626    0.013186241240
