16

 N    1.045668867344    1.536227294201    0.032105522614
 C    2.416284279753    1.735701972042    0.028473888238
 H    2.738068576091    2.779446902918    0.049892703931
 C    0.445953597915    0.283112134648    0.007575531958
 O   -0.771820433617    0.116169428581    0.008571612732
 N    1.371259613526   -0.753665475194   -0.020081005031
 H    0.976685905663   -1.692179785043   -0.040589878429
 C    2.776989991921   -0.667626762876   -0.028529055822
 O    3.465310664349   -1.691243984678   -0.056636994375
 C    3.306759172986    0.700762105858    0.000077313312
 C    4.799049066592    0.884620431320   -0.004753496514
 H    5.060596695672    1.953048308188    0.017900671633
 H    5.239193380182    0.426300211898   -0.903861747960
 H    5.250054273301    0.386133946014    0.867183340399
 H    0.403362644015    2.320480332375    0.052000940904
 K   -6.716221208548   -0.698739023741    0.013433847573
