16

 N    1.162641885094    1.552262939250    0.032009844294
 C    2.533257297503    1.751737617091    0.028378209918
 H    2.855041593841    2.795482547967    0.049797025611
 C    0.562926615665    0.299147779697    0.007479853638
 O   -0.654847415867    0.132205073630    0.008475934412
 N    1.488232631276   -0.737629830145   -0.020176683351
 H    1.093658923413   -1.676144139994   -0.040685556749
 C    2.893963009671   -0.651591117827   -0.028624734142
 O    3.582283682099   -1.675208339629   -0.056732672695
 C    3.423732190736    0.716797750907   -0.000018365008
 C    4.916022084342    0.900656076369   -0.004849174834
 H    5.177569713422    1.969083953237    0.017804993313
 H    5.356166397932    0.442335856947   -0.903957426280
 H    5.367027291051    0.402169591063    0.867087662079
 H    0.520335661765    2.336515977424    0.051905262584
 K   -7.094614922043   -0.750612416385    0.013743355490
