16

 N    1.209431092194    1.558677197270    0.031971572965
 C    2.580046504603    1.758151875111    0.028339938589
 H    2.901830800941    2.801896805987    0.049758754282
 C    0.609715822765    0.305562037717    0.007441582309
 O   -0.608058208767    0.138619331650    0.008437663083
 N    1.535021838376   -0.731215572125   -0.020214954680
 H    1.140448130513   -1.669729881974   -0.040723828078
 C    2.940752216771   -0.645176859807   -0.028663005471
 O    3.629072889199   -1.668794081609   -0.056770944024
 C    3.470521397836    0.723212008927   -0.000056636337
 C    4.962811291442    0.907070334389   -0.004887446163
 H    5.224358920522    1.975498211257    0.017766721984
 H    5.402955605032    0.448750114967   -0.903995697609
 H    5.413816498151    0.408583849083    0.867049390750
 H    0.567124868865    2.342930235444    0.051866991255
 K   -7.245972407440   -0.771361773443    0.013867158656
