16

 N    1.349798713494    1.577919971329    0.031856758981
 C    2.720414125903    1.777394649170    0.028225124605
 H    3.042198422241    2.821139580046    0.049643940298
 C    0.750083444065    0.324804811776    0.007326768325
 O   -0.467690587467    0.157862105709    0.008322849099
 N    1.675389459676   -0.711972798066   -0.020329768664
 H    1.280815751813   -1.650487107915   -0.040838642062
 C    3.081119838071   -0.625934085748   -0.028777819455
 O    3.769440510499   -1.649551307550   -0.056885758008
 C    3.610889019136    0.742454782986   -0.000171450321
 C    5.103178912742    0.926313108448   -0.005002260147
 H    5.364726541822    1.994740985316    0.017651908000
 H    5.543323226332    0.467992889026   -0.904110511593
 H    5.554184119451    0.427826623142    0.866934576766
 H    0.707492490165    2.362173009503    0.051752177271
 K   -7.700044863633   -0.833609844616    0.014238568156
