16

 N    1.443377127695    1.590748487369    0.031780216325
 C    2.813992540104    1.790223165210    0.028148581949
 H    3.135776836442    2.833968096086    0.049567397642
 C    0.843661858266    0.337633327816    0.007250225669
 O   -0.374112173266    0.170690621749    0.008246306443
 N    1.768967873877   -0.699144282026   -0.020406311320
 H    1.374394166014   -1.637658591875   -0.040915184718
 C    3.174698252272   -0.613105569708   -0.028854362111
 O    3.863018924700   -1.636722791510   -0.056962300664
 C    3.704467433337    0.755283299026   -0.000247992977
 C    5.196757326943    0.939141624488   -0.005078802803
 H    5.458304956023    2.007569501356    0.017575365344
 H    5.636901640533    0.480821405066   -0.904187054249
 H    5.647762533652    0.440655139182    0.866858034110
 H    0.801070904366    2.375001525543    0.051675634615
 K   -8.002759834428   -0.875108558731    0.014486174489
