16

 N    1.536955541895    1.603577003408    0.031703673668
 C    2.907570954304    1.803051681249    0.028072039292
 H    3.229355250642    2.846796612125    0.049490854985
 C    0.937240272466    0.350461843855    0.007173683012
 O   -0.280533759066    0.183519137788    0.008169763786
 N    1.862546288077   -0.686315765987   -0.020482853977
 H    1.467972580214   -1.624830075836   -0.040991727375
 C    3.268276666472   -0.600277053669   -0.028930904768
 O    3.956597338900   -1.623894275471   -0.057038843321
 C    3.798045847537    0.768111815065   -0.000324535634
 C    5.290335741143    0.951970140527   -0.005155345460
 H    5.551883370223    2.020398017395    0.017498822687
 H    5.730480054733    0.493649921105   -0.904263596906
 H    5.741340947852    0.453483655221    0.866781491453
 H    0.894649318566    2.387830041582    0.051599091958
 K   -8.305474805224   -0.916607272847    0.014733780822
