16

 N    1.607139352545    1.613198390438    0.031646266676
 C    2.977754764954    1.812673068279    0.028014632300
 H    3.299539061292    2.856417999155    0.049433447993
 C    1.007424083116    0.360083230885    0.007116276020
 O   -0.210349948416    0.193140524818    0.008112356794
 N    1.932730098727   -0.676694378957   -0.020540260969
 H    1.538156390864   -1.615208688806   -0.041049134367
 C    3.338460477122   -0.590655666639   -0.028988311760
 O    4.026781149550   -1.614272888441   -0.057096250313
 C    3.868229658187    0.777733202095   -0.000381942626
 C    5.360519551793    0.961591527557   -0.005212752452
 H    5.622067180873    2.030019404425    0.017441415695
 H    5.800663865383    0.503271308135   -0.904321003898
 H    5.811524758502    0.463105042251    0.866724084461
 H    0.964833129216    2.397451428612    0.051541684966
 K   -8.532511033320   -0.947731308433    0.014919485572
