16

 N    1.747506973845    1.632441164497    0.031531452691
 C    3.118122386254    1.831915842338    0.027899818315
 H    3.439906682592    2.875660773214    0.049318634008
 C    1.147791704416    0.379326004944    0.007001462035
 O   -0.069982327116    0.212383298877    0.007997542809
 N    2.073097720027   -0.657451604898   -0.020655074954
 H    1.678524012164   -1.595965914747   -0.041163948352
 C    3.478828098422   -0.571412892580   -0.029103125745
 O    4.167148770850   -1.595030114382   -0.057211064298
 C    4.008597279487    0.796975976154   -0.000496756611
 C    5.500887173093    0.980834301616   -0.005327566437
 H    5.762434802173    2.049262178484    0.017326601710
 H    5.941031486683    0.522514082194   -0.904435817883
 H    5.951892379802    0.482347816310    0.866609270476
 H    1.105200750516    2.416694202671    0.051426870981
 K   -8.986583489513   -1.009979379606    0.015290895071
