16

 N    1.864479991595    1.648476809547    0.031435774371
 C    3.235095404004    1.847951487388    0.027804139995
 H    3.556879700342    2.891696418264    0.049222955688
 C    1.264764722166    0.395361649994    0.006905783715
 O    0.046990690634    0.228418943927    0.007901864489
 N    2.190070737777   -0.641415959848   -0.020750753274
 H    1.795497029914   -1.579930269697   -0.041259626672
 C    3.595801116172   -0.555377247530   -0.029198804065
 O    4.284121788600   -1.578994469332   -0.057306742618
 C    4.125570297237    0.813011621204   -0.000592434931
 C    5.617860190843    0.996869946666   -0.005423244757
 H    5.879407819923    2.065297823534    0.017230923390
 H    6.058004504433    0.538549727244   -0.904531496203
 H    6.068865397552    0.498383461360    0.866513592156
 H    1.222173768266    2.432729847721    0.051331192661
 K   -9.364977203007   -1.061852772250    0.015600402987
