16

 N    1.911269198695    1.654891067566    0.031397503043
 C    3.281884611104    1.854365745407    0.027765868667
 H    3.603668907442    2.898110676283    0.049184684360
 C    1.311553929266    0.401775908013    0.006867512387
 O    0.093779897734    0.234833201946    0.007863593161
 N    2.236859944877   -0.635001701829   -0.020789024602
 H    1.842286237014   -1.573516011678   -0.041297898000
 C    3.642590323272   -0.548962989511   -0.029237075393
 O    4.330910995700   -1.572580211313   -0.057345013946
 C    4.172359504337    0.819425879223   -0.000630706259
 C    5.664649397943    1.003284204685   -0.005461516085
 H    5.926197027023    2.071712081553    0.017192652062
 H    6.104793711533    0.544963985263   -0.904569767531
 H    6.115654604652    0.504797719379    0.866475320828
 H    1.268962975366    2.439144105740    0.051292921333
 K   -9.516334688405   -1.082602129308    0.015724206154
