16

 N    1.934663802245    1.658098196576    0.031378367379
 C    3.305279214654    1.857572874417    0.027746733003
 H    3.627063510992    2.901317805293    0.049165548696
 C    1.334948532816    0.404983037023    0.006848376723
 O    0.117174501284    0.238040330956    0.007844457497
 N    2.260254548427   -0.631794572819   -0.020808160266
 H    1.865680840564   -1.570308882668   -0.041317033664
 C    3.665984926822   -0.545755860501   -0.029256211057
 O    4.354305599250   -1.569373082303   -0.057364149610
 C    4.195754107887    0.822633008233   -0.000649841923
 C    5.688044001493    1.006491333695   -0.005480651749
 H    5.949591630573    2.074919210563    0.017173516398
 H    6.128188315083    0.548171114273   -0.904588903195
 H    6.139049208202    0.508004848389    0.866456185164
 H    1.292357578916    2.442351234750    0.051273785669
 K   -9.592013431104   -1.092976807837    0.015786107737
