14

 C   -0.205482002363   -0.052544110412   -0.545182332968
 N    0.423271997637    1.137093889588   -0.545182332968
 H   -0.096075002363    2.005306889588   -0.545182332968
 H    1.433260997637    1.196272889588   -0.545182332968
 N   -1.547702002363   -0.093436110412   -0.545182332968
 H   -2.095744002363    0.757297889588   -0.545182332968
 H   -2.045306002363   -0.973859110412   -0.545182332968
 N    0.495240997637   -1.190242110412   -0.545182332968
 H    1.506527997637   -1.121841110412   -0.545182332968
 C   -0.120209002363   -2.523729110412   -0.545182332968
 H    0.687196997637   -3.263940110412   -0.545182332968
 H   -0.728078002363   -2.670719110412    0.360345667032
 H   -0.728078002363   -2.670719110412   -1.450710332968
CL    0.423271997637    1.137093889588    1.154817667032
