17

 C   -2.330224332248    1.889809604598    0.000000000000
 H   -3.267134332248    2.460039604598    0.000000000000
 H   -2.147204332248    1.224669604598    0.853400000000
 H   -2.147204332248    1.224669604598   -0.853400000000
 C   -1.349314332248    3.091919604598    0.000000000000
 O   -1.686754332248    4.258209604598    0.000000000000
 O   -0.035774332248    2.622619604598    0.000000000000
 H    0.616325667752    3.337209604598    0.000000000000
CS    0.006885667752   -0.504840395402    0.000000000000
 O    0.020524861170   -1.504747377277    0.000000000000
 H   -0.631579761871   -2.219339336866    0.000000000000
 C    1.334066284309   -1.974048292785    0.000000000000
 O    1.671505903517   -3.140333797192    0.000000000000
 C    2.314984404052   -0.771935147544    0.000000000000
 H    3.251884976539   -1.342168101145    0.000000000000
 H    2.131956830864   -0.106788935022   -0.853406316077
 H    2.131956830864   -0.106788935022    0.853406316077
