17

 C   -2.330547972178    1.913536068123    0.000000000000
 H   -3.267457972178    2.483766068123    0.000000000000
 H   -2.147527972178    1.248396068123    0.853400000000
 H   -2.147527972178    1.248396068123   -0.853400000000
 C   -1.349637972178    3.115646068123    0.000000000000
 O   -1.687077972178    4.281936068123    0.000000000000
 O   -0.036097972178    2.646346068123    0.000000000000
 H    0.616002027822    3.360936068123    0.000000000000
CS    0.006562027822   -0.481113931877    0.000000000000
 O    0.021565140582   -1.581011611940    0.000000000000
 H   -0.630539482458   -2.295603571529    0.000000000000
 C    1.335106563722   -2.050312527448    0.000000000000
 O    1.672546182929   -3.216598031855    0.000000000000
 C    2.316024683464   -0.848199382207    0.000000000000
 H    3.252925255951   -1.418432335808    0.000000000000
 H    2.132997110276   -0.183053169685   -0.853406316077
 H    2.132997110276   -0.183053169685    0.853406316077
