17

 C   -2.331195252037    1.960988995172    0.000000000000
 H   -3.268105252037    2.531218995172    0.000000000000
 H   -2.148175252037    1.295848995172    0.853400000000
 H   -2.148175252037    1.295848995172   -0.853400000000
 C   -1.350285252037    3.163098995172    0.000000000000
 O   -1.687725252037    4.329388995172    0.000000000000
 O   -0.036745252037    2.693798995172    0.000000000000
 H    0.615354747963    3.408388995172    0.000000000000
CS    0.005914747963   -0.433661004828    0.000000000000
 O    0.023645699407   -1.733540081265    0.000000000000
 H   -0.628458923634   -2.448132040855    0.000000000000
 C    1.337187122546   -2.202840996774    0.000000000000
 O    1.674626741753   -3.369126501180    0.000000000000
 C    2.318105242288   -1.000727851533    0.000000000000
 H    3.255005814776   -1.570960805134    0.000000000000
 H    2.135077669101   -0.335581639010   -0.853406316077
 H    2.135077669101   -0.335581639010    0.853406316077
