17

 C   -2.333460731543    2.127074239845    0.000000000000
 H   -3.270370731543    2.697304239845    0.000000000000
 H   -2.150440731543    1.461934239845    0.853400000000
 H   -2.150440731543    1.461934239845   -0.853400000000
 C   -1.352550731543    3.329184239845    0.000000000000
 O   -1.689990731543    4.495474239845    0.000000000000
 O   -0.039010731543    2.859884239845    0.000000000000
 H    0.613089268457    3.574474239845    0.000000000000
CS    0.003649268457   -0.267575760155    0.000000000000
 O    0.030927655293   -2.267389723905    0.000000000000
 H   -0.621176967748   -2.981981683494    0.000000000000
 C    1.344469078432   -2.736690639413    0.000000000000
 O    1.681908697639   -3.902976143820    0.000000000000
 C    2.325387198174   -1.534577494172    0.000000000000
 H    3.262287770662   -2.104810447774    0.000000000000
 H    2.142359624987   -0.869431281650   -0.853406316077
 H    2.142359624987   -0.869431281650    0.853406316077
