17

 C   -2.333784371473    2.150800703370    0.000000000000
 H   -3.270694371473    2.721030703370    0.000000000000
 H   -2.150764371473    1.485660703370    0.853400000000
 H   -2.150764371473    1.485660703370   -0.853400000000
 C   -1.352874371473    3.352910703370    0.000000000000
 O   -1.690314371473    4.519200703370    0.000000000000
 O   -0.039334371473    2.883610703370    0.000000000000
 H    0.612765628527    3.598200703370    0.000000000000
CS    0.003325628527   -0.243849296630    0.000000000000
 O    0.031967934705   -2.343653958568    0.000000000000
 H   -0.620136688336   -3.058245918157    0.000000000000
 C    1.345509357844   -2.812954874076    0.000000000000
 O    1.682948977052   -3.979240378483    0.000000000000
 C    2.326427477587   -1.610841728835    0.000000000000
 H    3.263328050074   -2.181074682436    0.000000000000
 H    2.143399904399   -0.945695516313   -0.853406316077
 H    2.143399904399   -0.945695516313    0.853406316077
