17

 C   -2.336049850979    2.316885948043    0.000000000000
 H   -3.272959850979    2.887115948043    0.000000000000
 H   -2.153029850979    1.651745948043    0.853400000000
 H   -2.153029850979    1.651745948043   -0.853400000000
 C   -1.355139850979    3.518995948043    0.000000000000
 O   -1.692579850979    4.685285948043    0.000000000000
 O   -0.041599850979    3.049695948043    0.000000000000
 H    0.610500149021    3.764285948043    0.000000000000
CS    0.001060149021   -0.077764051957    0.000000000000
 O    0.039249890591   -2.877503601208    0.000000000000
 H   -0.612854732450   -3.592095560797    0.000000000000
 C    1.352791313730   -3.346804516716    0.000000000000
 O    1.690230932938   -4.513090021122    0.000000000000
 C    2.333709433472   -2.144691371475    0.000000000000
 H    3.270610005960   -2.714924325076    0.000000000000
 H    2.150681860285   -1.479545158952   -0.853406316077
 H    2.150681860285   -1.479545158952    0.853406316077
