17

 C   -2.337344410697    2.411791802142    0.000000000000
 H   -3.274254410697    2.982021802142    0.000000000000
 H   -2.154324410697    1.746651802142    0.853400000000
 H   -2.154324410697    1.746651802142   -0.853400000000
 C   -1.356434410697    3.613901802142    0.000000000000
 O   -1.693874410697    4.780191802142    0.000000000000
 O   -0.042894410697    3.144601802142    0.000000000000
 H    0.609205589303    3.859191802142    0.000000000000
CS   -0.000234410697    0.017141802142    0.000000000000
 O    0.043411008240   -3.182560539859    0.000000000000
 H   -0.608693614801   -3.897152499448    0.000000000000
 C    1.356952431379   -3.651861455367    0.000000000000
 O    1.694392050587   -4.818146959774    0.000000000000
 C    2.337870551122   -2.449748310126    0.000000000000
 H    3.274771123609   -3.019981263727    0.000000000000
 H    2.154842977934   -1.784602097603   -0.853406316077
 H    2.154842977934   -1.784602097603    0.853406316077
