17

 C   -2.337668050627    2.435518265667    0.000000000000
 H   -3.274578050627    3.005748265667    0.000000000000
 H   -2.154648050627    1.770378265667    0.853400000000
 H   -2.154648050627    1.770378265667   -0.853400000000
 C   -1.356758050627    3.637628265667    0.000000000000
 O   -1.694198050627    4.803918265667    0.000000000000
 O   -0.043218050627    3.168328265667    0.000000000000
 H    0.608881949373    3.882918265667    0.000000000000
CS   -0.000558050627    0.040868265667    0.000000000000
 O    0.044451287652   -3.258824774522    0.000000000000
 H   -0.607653335388   -3.973416734111    0.000000000000
 C    1.357992710792   -3.728125690030    0.000000000000
 O    1.695432329999   -4.894411194436    0.000000000000
 C    2.338910830534   -2.526012544789    0.000000000000
 H    3.275811403021   -3.096245498390    0.000000000000
 H    2.155883257346   -1.860866332266   -0.853406316077
 H    2.155883257346   -1.860866332266    0.853406316077
