17

 C   -2.337991690557    2.459244729191    0.000000000000
 H   -3.274901690557    3.029474729191    0.000000000000
 H   -2.154971690557    1.794104729191    0.853400000000
 H   -2.154971690557    1.794104729191   -0.853400000000
 C   -1.357081690557    3.661354729191    0.000000000000
 O   -1.694521690557    4.827644729191    0.000000000000
 O   -0.043541690557    3.192054729191    0.000000000000
 H    0.608558309443    3.906644729191    0.000000000000
CS   -0.000881690557    0.064594729191    0.000000000000
 O    0.045491567064   -3.335089009184    0.000000000000
 H   -0.606613055976   -4.049680968773    0.000000000000
 C    1.359032990204   -3.804389924693    0.000000000000
 O    1.696472609411   -4.970675429099    0.000000000000
 C    2.339951109946   -2.602276779451    0.000000000000
 H    3.276851682433   -3.172509733053    0.000000000000
 H    2.156923536759   -1.937130566929   -0.853406316077
 H    2.156923536759   -1.937130566929    0.853406316077
