17

 C   -2.338638970416    2.506697656241    0.000000000000
 H   -3.275548970416    3.076927656241    0.000000000000
 H   -2.155618970416    1.841557656241    0.853400000000
 H   -2.155618970416    1.841557656241   -0.853400000000
 C   -1.357728970416    3.708807656241    0.000000000000
 O   -1.695168970416    4.875097656241    0.000000000000
 O   -0.044188970416    3.239507656241    0.000000000000
 H    0.607911029584    3.954097656241    0.000000000000
CS   -0.001528970416    0.112047656241    0.000000000000
 O    0.047572125889   -3.487617478510    0.000000000000
 H   -0.604532497151   -4.202209438099    0.000000000000
 C    1.361113549028   -3.956918394018    0.000000000000
 O    1.698553168236   -5.123203898425    0.000000000000
 C    2.342031668771   -2.754805248777    0.000000000000
 H    3.278932241258   -3.325038202379    0.000000000000
 H    2.159004095583   -2.089659036255   -0.853406316077
 H    2.159004095583   -2.089659036255    0.853406316077
