17

 C   -2.338962610345    2.530424119766    0.000000000000
 H   -3.275872610345    3.100654119766    0.000000000000
 H   -2.155942610345    1.865284119766    0.853400000000
 H   -2.155942610345    1.865284119766   -0.853400000000
 C   -1.358052610345    3.732534119766    0.000000000000
 O   -1.695492610345    4.898824119766    0.000000000000
 O   -0.044512610345    3.263234119766    0.000000000000
 H    0.607587389655    3.977824119766    0.000000000000
CS   -0.001852610345    0.135774119766    0.000000000000
 O    0.048612405301   -3.563881713173    0.000000000000
 H   -0.603492217739   -4.278473672762    0.000000000000
 C    1.362153828441   -4.033182628681    0.000000000000
 O    1.699593447648   -5.199468133088    0.000000000000
 C    2.343071948183   -2.831069483440    0.000000000000
 H    3.279972520670   -3.401302437041    0.000000000000
 H    2.160044374995   -2.165923270918   -0.853406316077
 H    2.160044374995   -2.165923270918    0.853406316077
