17

 C   -2.339286250275    2.554150583290    0.000000000000
 H   -3.276196250275    3.124380583290    0.000000000000
 H   -2.156266250275    1.889010583290    0.853400000000
 H   -2.156266250275    1.889010583290   -0.853400000000
 C   -1.358376250275    3.756260583290    0.000000000000
 O   -1.695816250275    4.922550583290    0.000000000000
 O   -0.044836250275    3.286960583290    0.000000000000
 H    0.607263749725    4.001550583290    0.000000000000
CS   -0.002176250275    0.159500583290    0.000000000000
 O    0.049652684713   -3.640145947836    0.000000000000
 H   -0.602451938327   -4.354737907425    0.000000000000
 C    1.363194107853   -4.109446863344    0.000000000000
 O    1.700633727060   -5.275732367750    0.000000000000
 C    2.344112227595   -2.907333718103    0.000000000000
 H    3.281012800083   -3.477566671704    0.000000000000
 H    2.161084654408   -2.242187505580   -0.853406316077
 H    2.161084654408   -2.242187505580    0.853406316077
