17

 C   -2.339933530134    2.601603510340    0.000000000000
 H   -3.276843530134    3.171833510340    0.000000000000
 H   -2.156913530134    1.936463510340    0.853400000000
 H   -2.156913530134    1.936463510340   -0.853400000000
 C   -1.359023530134    3.803713510340    0.000000000000
 O   -1.696463530134    4.970003510340    0.000000000000
 O   -0.045483530134    3.334413510340    0.000000000000
 H    0.606616469866    4.049003510340    0.000000000000
CS   -0.002823530134    0.206953510340    0.000000000000
 O    0.051733243538   -3.792674417161    0.000000000000
 H   -0.600371379502   -4.507266376750    0.000000000000
 C    1.365274666678   -4.261975332669    0.000000000000
 O    1.702714285885   -5.428260837076    0.000000000000
 C    2.346192786420   -3.059862187428    0.000000000000
 H    3.283093358907   -3.630095141030    0.000000000000
 H    2.163165213232   -2.394715974906   -0.853406316077
 H    2.163165213232   -2.394715974906    0.853406316077
