17

 C   -2.340257170063    2.625329973865    0.000000000000
 H   -3.277167170063    3.195559973865    0.000000000000
 H   -2.157237170063    1.960189973865    0.853400000000
 H   -2.157237170063    1.960189973865   -0.853400000000
 C   -1.359347170063    3.827439973865    0.000000000000
 O   -1.696787170063    4.993729973865    0.000000000000
 O   -0.045807170063    3.358139973865    0.000000000000
 H    0.606292829937    4.072729973865    0.000000000000
CS   -0.003147170063    0.230679973865    0.000000000000
 O    0.052773522950   -3.868938651824    0.000000000000
 H   -0.599331100090   -4.583530611413    0.000000000000
 C    1.366314946090   -4.338239567332    0.000000000000
 O    1.703754565297   -5.504525071739    0.000000000000
 C    2.347233065832   -3.136126422091    0.000000000000
 H    3.284133638319   -3.706359375693    0.000000000000
 H    2.164205492644   -2.470980209569   -0.853406316077
 H    2.164205492644   -2.470980209569    0.853406316077
