17

 C   -2.340580809993    2.649056437389    0.000000000000
 H   -3.277490809993    3.219286437389    0.000000000000
 H   -2.157560809993    1.983916437389    0.853400000000
 H   -2.157560809993    1.983916437389   -0.853400000000
 C   -1.359670809993    3.851166437389    0.000000000000
 O   -1.697110809993    5.017456437389    0.000000000000
 O   -0.046130809993    3.381866437389    0.000000000000
 H    0.605969190007    4.096456437389    0.000000000000
CS   -0.003470809993    0.254406437389    0.000000000000
 O    0.053813802363   -3.945202886487    0.000000000000
 H   -0.598290820678   -4.659794846076    0.000000000000
 C    1.367355225502   -4.414503801995    0.000000000000
 O    1.704794844709   -5.580789306402    0.000000000000
 C    2.348273345244   -3.212390656754    0.000000000000
 H    3.285173917732   -3.782623610355    0.000000000000
 H    2.165245772057   -2.547244444232   -0.853406316077
 H    2.165245772057   -2.547244444232    0.853406316077
