17

 C   -2.340904449922    2.672782900914    0.000000000000
 H   -3.277814449922    3.243012900914    0.000000000000
 H   -2.157884449922    2.007642900914    0.853400000000
 H   -2.157884449922    2.007642900914   -0.853400000000
 C   -1.359994449922    3.874892900914    0.000000000000
 O   -1.697434449922    5.041182900914    0.000000000000
 O   -0.046454449922    3.405592900914    0.000000000000
 H    0.605645550078    4.120182900914    0.000000000000
CS   -0.003794449922    0.278132900914    0.000000000000
 O    0.054854081775   -4.021467121150    0.000000000000
 H   -0.597250541266   -4.736059080739    0.000000000000
 C    1.368395504914   -4.490768036658    0.000000000000
 O    1.705835124122   -5.657053541064    0.000000000000
 C    2.349313624657   -3.288654891417    0.000000000000
 H    3.286214197144   -3.858887845018    0.000000000000
 H    2.166286051469   -2.623508678894   -0.853406316077
 H    2.166286051469   -2.623508678894    0.853406316077
