17

 C   -2.341228089852    2.696509364439    0.000000000000
 H   -3.278138089852    3.266739364439    0.000000000000
 H   -2.158208089852    2.031369364439    0.853400000000
 H   -2.158208089852    2.031369364439   -0.853400000000
 C   -1.360318089852    3.898619364439    0.000000000000
 O   -1.697758089852    5.064909364439    0.000000000000
 O   -0.046778089852    3.429319364439    0.000000000000
 H    0.605321910148    4.143909364439    0.000000000000
CS   -0.004118089852    0.301859364439    0.000000000000
 O    0.055894361187   -4.097731355813    0.000000000000
 H   -0.596210261853   -4.812323315402    0.000000000000
 C    1.369435784327   -4.567032271321    0.000000000000
 O    1.706875403534   -5.733317775727    0.000000000000
 C    2.350353904069   -3.364919126080    0.000000000000
 H    3.287254476556   -3.935152079681    0.000000000000
 H    2.167326330881   -2.699772913557   -0.853406316077
 H    2.167326330881   -2.699772913557    0.853406316077
