17

 C   -2.341875369711    2.743962291488    0.000000000000
 H   -3.278785369711    3.314192291488    0.000000000000
 H   -2.158855369711    2.078822291488    0.853400000000
 H   -2.158855369711    2.078822291488   -0.853400000000
 C   -1.360965369711    3.946072291488    0.000000000000
 O   -1.698405369711    5.112362291488    0.000000000000
 O   -0.047425369711    3.476772291488    0.000000000000
 H    0.604674630289    4.191362291488    0.000000000000
CS   -0.004765369711    0.349312291488    0.000000000000
 O    0.057974920012   -4.250259825138    0.000000000000
 H   -0.594129703029   -4.964851784727    0.000000000000
 C    1.371516343151   -4.719560740646    0.000000000000
 O    1.708955962359   -5.885846245053    0.000000000000
 C    2.352434462893   -3.517447595405    0.000000000000
 H    3.289335035381   -4.087680549007    0.000000000000
 H    2.169406889706   -2.852301382883   -0.853406316077
 H    2.169406889706   -2.852301382883    0.853406316077
