17

 C   -2.343169929429    2.838868145587    0.000000000000
 H   -3.280079929429    3.409098145587    0.000000000000
 H   -2.160149929429    2.173728145587    0.853400000000
 H   -2.160149929429    2.173728145587   -0.853400000000
 C   -1.362259929429    4.040978145587    0.000000000000
 O   -1.699699929429    5.207268145587    0.000000000000
 O   -0.048719929429    3.571678145587    0.000000000000
 H    0.603380070571    4.286268145587    0.000000000000
CS   -0.006059929429    0.444218145587    0.000000000000
 O    0.062136037661   -4.555316763789    0.000000000000
 H   -0.589968585380   -5.269908723378    0.000000000000
 C    1.375677460800   -5.024617679297    0.000000000000
 O    1.713117080008   -6.190903183704    0.000000000000
 C    2.356595580543   -3.822504534056    0.000000000000
 H    3.293496153030   -4.392737487658    0.000000000000
 H    2.173568007355   -3.157358321534   -0.853406316077
 H    2.173568007355   -3.157358321534    0.853406316077
