17

 C   -2.344464489147    2.933773999686    0.000000000000
 H   -3.281374489147    3.504003999686    0.000000000000
 H   -2.161444489147    2.268633999686    0.853400000000
 H   -2.161444489147    2.268633999686   -0.853400000000
 C   -1.363554489147    4.135883999686    0.000000000000
 O   -1.700994489147    5.302173999686    0.000000000000
 O   -0.050014489147    3.666583999686    0.000000000000
 H    0.602085510853    4.381173999686    0.000000000000
CS   -0.007354489147    0.539123999686    0.000000000000
 O    0.066297155310   -4.860373702441    0.000000000000
 H   -0.585807467731   -5.574965662030    0.000000000000
 C    1.379838578449   -5.329674617949    0.000000000000
 O    1.717278197657   -6.495960122355    0.000000000000
 C    2.360756698192   -4.127561472708    0.000000000000
 H    3.297657270679   -4.697794426309    0.000000000000
 H    2.177729125004   -3.462415260185   -0.853406316077
 H    2.177729125004   -3.462415260185    0.853406316077
