17

 C   -2.344788129076    2.957500463211    0.000000000000
 H   -3.281698129076    3.527730463211    0.000000000000
 H   -2.161768129076    2.292360463211    0.853400000000
 H   -2.161768129076    2.292360463211   -0.853400000000
 C   -1.363878129076    4.159610463211    0.000000000000
 O   -1.701318129076    5.325900463211    0.000000000000
 O   -0.050338129076    3.690310463211    0.000000000000
 H    0.601761870924    4.404900463211    0.000000000000
CS   -0.007678129076    0.562850463211    0.000000000000
 O    0.067337434722   -4.936637937103    0.000000000000
 H   -0.584767188318   -5.651229896692    0.000000000000
 C    1.380878857862   -5.405938852612    0.000000000000
 O    1.718318477069   -6.572224357018    0.000000000000
 C    2.361796977604   -4.203825707370    0.000000000000
 H    3.298697550091   -4.774058660972    0.000000000000
 H    2.178769404416   -3.538679494848   -0.853406316077
 H    2.178769404416   -3.538679494848    0.853406316077
