17

 C   -2.345435408935    3.004953390260    0.000000000000
 H   -3.282345408935    3.575183390260    0.000000000000
 H   -2.162415408935    2.339813390260    0.853400000000
 H   -2.162415408935    2.339813390260   -0.853400000000
 C   -1.364525408935    4.207063390260    0.000000000000
 O   -1.701965408935    5.373353390260    0.000000000000
 O   -0.050985408935    3.737763390260    0.000000000000
 H    0.601114591065    4.452353390260    0.000000000000
CS   -0.008325408935    0.610303390260    0.000000000000
 O    0.069417993547   -5.089166406429    0.000000000000
 H   -0.582686629494   -5.803758366018    0.000000000000
 C    1.382959416686   -5.558467321937    0.000000000000
 O    1.720399035894   -6.724752826344    0.000000000000
 C    2.363877536428   -4.356354176696    0.000000000000
 H    3.300778108916   -4.926587130297    0.000000000000
 H    2.180849963241   -3.691207964174   -0.853406316077
 H    2.180849963241   -3.691207964174    0.853406316077
