17

 C   -2.346082688794    3.052406317309    0.000000000000
 H   -3.282992688794    3.622636317309    0.000000000000
 H   -2.163062688794    2.387266317309    0.853400000000
 H   -2.163062688794    2.387266317309   -0.853400000000
 C   -1.365172688794    4.254516317309    0.000000000000
 O   -1.702612688794    5.420806317309    0.000000000000
 O   -0.051632688794    3.785216317309    0.000000000000
 H    0.600467311206    4.499806317309    0.000000000000
CS   -0.008972688794    0.657756317309    0.000000000000
 O    0.071498552371   -5.241694875755    0.000000000000
 H   -0.580606070669   -5.956286835344    0.000000000000
 C    1.385039975511   -5.710995791263    0.000000000000
 O    1.722479594718   -6.877281295669    0.000000000000
 C    2.365958095253   -4.508882646022    0.000000000000
 H    3.302858667740   -5.079115599623    0.000000000000
 H    2.182930522065   -3.843736433499   -0.853406316077
 H    2.182930522065   -3.843736433499    0.853406316077
