17

 C   -2.347377248512    3.147312171408    0.000000000000
 H   -3.284287248512    3.717542171408    0.000000000000
 H   -2.164357248512    2.482172171408    0.853400000000
 H   -2.164357248512    2.482172171408   -0.853400000000
 C   -1.366467248512    4.349422171408    0.000000000000
 O   -1.703907248512    5.515712171408    0.000000000000
 O   -0.052927248512    3.880122171408    0.000000000000
 H    0.599172751488    4.594712171408    0.000000000000
CS   -0.010267248512    0.752662171408    0.000000000000
 O    0.075659670020   -5.546751814406    0.000000000000
 H   -0.576444953020   -6.261343773995    0.000000000000
 C    1.389201093160   -6.016052729914    0.000000000000
 O    1.726640712367   -7.182338234321    0.000000000000
 C    2.370119212902   -4.813939584673    0.000000000000
 H    3.307019785389   -5.384172538274    0.000000000000
 H    2.187091639715   -4.148793372151   -0.853406316077
 H    2.187091639715   -4.148793372151    0.853406316077
