17

 C   -2.347700888442    3.171038634933    0.000000000000
 H   -3.284610888442    3.741268634933    0.000000000000
 H   -2.164680888442    2.505898634933    0.853400000000
 H   -2.164680888442    2.505898634933   -0.853400000000
 C   -1.366790888442    4.373148634933    0.000000000000
 O   -1.704230888442    5.539438634933    0.000000000000
 O   -0.053250888442    3.903848634933    0.000000000000
 H    0.598849111558    4.618438634933    0.000000000000
CS   -0.010590888442    0.776388634933    0.000000000000
 O    0.076699949433   -5.623016049069    0.000000000000
 H   -0.575404673608   -6.337608008658    0.000000000000
 C    1.390241372572   -6.092316964577    0.000000000000
 O    1.727680991780   -7.258602468983    0.000000000000
 C    2.371159492314   -4.890203819336    0.000000000000
 H    3.308060064802   -5.460436772937    0.000000000000
 H    2.188131919127   -4.225057606813   -0.853406316077
 H    2.188131919127   -4.225057606813    0.853406316077
