17

 C   -2.348024528372    3.194765098458    0.000000000000
 H   -3.284934528372    3.764995098458    0.000000000000
 H   -2.165004528372    2.529625098458    0.853400000000
 H   -2.165004528372    2.529625098458   -0.853400000000
 C   -1.367114528372    4.396875098458    0.000000000000
 O   -1.704554528372    5.563165098458    0.000000000000
 O   -0.053574528372    3.927575098458    0.000000000000
 H    0.598525471628    4.642165098458    0.000000000000
CS   -0.010914528372    0.800115098458    0.000000000000
 O    0.077740228845   -5.699280283732    0.000000000000
 H   -0.574364394195   -6.413872243321    0.000000000000
 C    1.391281651984   -6.168581199240    0.000000000000
 O    1.728721271192   -7.334866703646    0.000000000000
 C    2.372199771727   -4.966468053999    0.000000000000
 H    3.309100344214   -5.536701007600    0.000000000000
 H    2.189172198539   -4.301321841476   -0.853406316077
 H    2.189172198539   -4.301321841476    0.853406316077
