17

 C   -2.348671808231    3.242218025507    0.000000000000
 H   -3.285581808231    3.812448025507    0.000000000000
 H   -2.165651808231    2.577078025507    0.853400000000
 H   -2.165651808231    2.577078025507   -0.853400000000
 C   -1.367761808231    4.444328025507    0.000000000000
 O   -1.705201808231    5.610618025507    0.000000000000
 O   -0.054221808231    3.975028025507    0.000000000000
 H    0.597878191769    4.689618025507    0.000000000000
CS   -0.011561808231    0.847568025507    0.000000000000
 O    0.079820787669   -5.851808753057    0.000000000000
 H   -0.572283835371   -6.566400712646    0.000000000000
 C    1.393362210809   -6.321109668565    0.000000000000
 O    1.730801830016   -7.487395172972    0.000000000000
 C    2.374280330551   -5.118996523324    0.000000000000
 H    3.311180903039   -5.689229476926    0.000000000000
 H    2.191252757364   -4.453850310802   -0.853406316077
 H    2.191252757364   -4.453850310802    0.853406316077
