17

 C   -2.348995448160    3.265944489032    0.000000000000
 H   -3.285905448160    3.836174489032    0.000000000000
 H   -2.165975448160    2.600804489032    0.853400000000
 H   -2.165975448160    2.600804489032   -0.853400000000
 C   -1.368085448160    4.468054489032    0.000000000000
 O   -1.705525448160    5.634344489032    0.000000000000
 O   -0.054545448160    3.998754489032    0.000000000000
 H    0.597554551840    4.713344489032    0.000000000000
CS   -0.011885448160    0.871294489032    0.000000000000
 O    0.080861067082   -5.928072987720    0.000000000000
 H   -0.571243555959   -6.642664947309    0.000000000000
 C    1.394402490221   -6.397373903228    0.000000000000
 O    1.731842109429   -7.563659407635    0.000000000000
 C    2.375320609963   -5.195260757987    0.000000000000
 H    3.312221182451   -5.765493711588    0.000000000000
 H    2.192293036776   -4.530114545465   -0.853406316077
 H    2.192293036776   -4.530114545465    0.853406316077
