17

 C   -2.349319088090    3.289670952557    0.000000000000
 H   -3.286229088090    3.859900952557    0.000000000000
 H   -2.166299088090    2.624530952557    0.853400000000
 H   -2.166299088090    2.624530952557   -0.853400000000
 C   -1.368409088090    4.491780952557    0.000000000000
 O   -1.705849088090    5.658070952557    0.000000000000
 O   -0.054869088090    4.022480952557    0.000000000000
 H    0.597230911910    4.737070952557    0.000000000000
CS   -0.012209088090    0.895020952557    0.000000000000
 O    0.081901346494   -6.004337222383    0.000000000000
 H   -0.570203276546   -6.718929181972    0.000000000000
 C    1.395442769634   -6.473638137891    0.000000000000
 O    1.732882388841   -7.639923642298    0.000000000000
 C    2.376360889376   -5.271524992650    0.000000000000
 H    3.313261461863   -5.841757946251    0.000000000000
 H    2.193333316188   -4.606378780127   -0.853406316077
 H    2.193333316188   -4.606378780127    0.853406316077
