17

 C   -2.349642728019    3.313397416081    0.000000000000
 H   -3.286552728019    3.883627416081    0.000000000000
 H   -2.166622728019    2.648257416081    0.853400000000
 H   -2.166622728019    2.648257416081   -0.853400000000
 C   -1.368732728019    4.515507416081    0.000000000000
 O   -1.706172728019    5.681797416081    0.000000000000
 O   -0.055192728019    4.046207416081    0.000000000000
 H    0.596907271981    4.760797416081    0.000000000000
CS   -0.012532728019    0.918747416081    0.000000000000
 O    0.082941625906   -6.080601457046    0.000000000000
 H   -0.569162997134   -6.795193416635    0.000000000000
 C    1.396483049046   -6.549902372554    0.000000000000
 O    1.733922668253   -7.716187876960    0.000000000000
 C    2.377401168788   -5.347789227313    0.000000000000
 H    3.314301741275   -5.918022180914    0.000000000000
 H    2.194373595600   -4.682643014790   -0.853406316077
 H    2.194373595600   -4.682643014790    0.853406316077
