17

 C   -2.349966367949    3.337123879606    0.000000000000
 H   -3.286876367949    3.907353879606    0.000000000000
 H   -2.166946367949    2.671983879606    0.853400000000
 H   -2.166946367949    2.671983879606   -0.853400000000
 C   -1.369056367949    4.539233879606    0.000000000000
 O   -1.706496367949    5.705523879606    0.000000000000
 O   -0.055516367949    4.069933879606    0.000000000000
 H    0.596583632051    4.784523879606    0.000000000000
CS   -0.012856367949    0.942473879606    0.000000000000
 O    0.083981905319   -6.156865691708    0.000000000000
 H   -0.568122717722   -6.871457651297    0.000000000000
 C    1.397523328458   -6.626166607216    0.000000000000
 O    1.734962947665   -7.792452111623    0.000000000000
 C    2.378441448200   -5.424053461975    0.000000000000
 H    3.315342020688   -5.994286415577    0.000000000000
 H    2.195413875013   -4.758907249453   -0.853406316077
 H    2.195413875013   -4.758907249453    0.853406316077
