17

 C   -2.351260927667    3.432029733705    0.000000000000
 H   -3.288170927667    4.002259733705    0.000000000000
 H   -2.168240927667    2.766889733705    0.853400000000
 H   -2.168240927667    2.766889733705   -0.853400000000
 C   -1.370350927667    4.634139733705    0.000000000000
 O   -1.707790927667    5.800429733705    0.000000000000
 O   -0.056810927667    4.164839733705    0.000000000000
 H    0.595289072333    4.879429733705    0.000000000000
CS   -0.014150927667    1.037379733705    0.000000000000
 O    0.088143022968   -6.461922630360    0.000000000000
 H   -0.563961600073   -7.176514589949    0.000000000000
 C    1.401684446107   -6.931223545868    0.000000000000
 O    1.739124065315   -8.097509050274    0.000000000000
 C    2.382602565849   -5.729110400627    0.000000000000
 H    3.319503138337   -6.299343354228    0.000000000000
 H    2.199574992662   -5.063964188104   -0.853406316077
 H    2.199574992662   -5.063964188104    0.853406316077
