17

 C   -2.351584567596    3.455756197230    0.000000000000
 H   -3.288494567596    4.025986197230    0.000000000000
 H   -2.168564567596    2.790616197230    0.853400000000
 H   -2.168564567596    2.790616197230   -0.853400000000
 C   -1.370674567596    4.657866197230    0.000000000000
 O   -1.708114567596    5.824156197230    0.000000000000
 O   -0.057134567596    4.188566197230    0.000000000000
 H    0.594965432404    4.903156197230    0.000000000000
CS   -0.014474567596    1.061106197230    0.000000000000
 O    0.089183302380   -6.538186865022    0.000000000000
 H   -0.562921320660   -7.252778824611    0.000000000000
 C    1.402724725519   -7.007487780530    0.000000000000
 O    1.740164344727   -8.173773284937    0.000000000000
 C    2.383642845262   -5.805374635289    0.000000000000
 H    3.320543417749   -6.375607588891    0.000000000000
 H    2.200615272074   -5.140228422767   -0.853406316077
 H    2.200615272074   -5.140228422767    0.853406316077
