17

 C   -2.351908207526    3.479482660754    0.000000000000
 H   -3.288818207526    4.049712660754    0.000000000000
 H   -2.168888207526    2.814342660754    0.853400000000
 H   -2.168888207526    2.814342660754   -0.853400000000
 C   -1.370998207526    4.681592660754    0.000000000000
 O   -1.708438207526    5.847882660754    0.000000000000
 O   -0.057458207526    4.212292660754    0.000000000000
 H    0.594641792474    4.926882660754    0.000000000000
CS   -0.014798207526    1.084832660754    0.000000000000
 O    0.090223581792   -6.614451099685    0.000000000000
 H   -0.561881041248   -7.329043059274    0.000000000000
 C    1.403765004932   -7.083752015193    0.000000000000
 O    1.741204624139   -8.250037519600    0.000000000000
 C    2.384683124674   -5.881638869952    0.000000000000
 H    3.321583697161   -6.451871823554    0.000000000000
 H    2.201655551486   -5.216492657430   -0.853406316077
 H    2.201655551486   -5.216492657430    0.853406316077
