17

 C   -2.352231847455    3.503209124279    0.000000000000
 H   -3.289141847455    4.073439124279    0.000000000000
 H   -2.169211847455    2.838069124279    0.853400000000
 H   -2.169211847455    2.838069124279   -0.853400000000
 C   -1.371321847455    4.705319124279    0.000000000000
 O   -1.708761847455    5.871609124279    0.000000000000
 O   -0.057781847455    4.236019124279    0.000000000000
 H    0.594318152545    4.950609124279    0.000000000000
CS   -0.015121847455    1.108559124279    0.000000000000
 O    0.091263861205   -6.690715334348    0.000000000000
 H   -0.560840761836   -7.405307293937    0.000000000000
 C    1.404805284344   -7.160016249856    0.000000000000
 O    1.742244903551   -8.326301754263    0.000000000000
 C    2.385723404086   -5.957903104615    0.000000000000
 H    3.322623976574   -6.528136058216    0.000000000000
 H    2.202695830899   -5.292756892093   -0.853406316077
 H    2.202695830899   -5.292756892093    0.853406316077
