17

 C   -2.352555487385    3.526935587804    0.000000000000
 H   -3.289465487385    4.097165587804    0.000000000000
 H   -2.169535487385    2.861795587804    0.853400000000
 H   -2.169535487385    2.861795587804   -0.853400000000
 C   -1.371645487385    4.729045587804    0.000000000000
 O   -1.709085487385    5.895335587804    0.000000000000
 O   -0.058105487385    4.259745587804    0.000000000000
 H    0.593994512615    4.974335587804    0.000000000000
CS   -0.015445487385    1.132285587804    0.000000000000
 O    0.092304140617   -6.766979569011    0.000000000000
 H   -0.559800482424   -7.481571528600    0.000000000000
 C    1.405845563756   -7.236280484519    0.000000000000
 O    1.743285182964   -8.402565988926    0.000000000000
 C    2.386763683499   -6.034167339278    0.000000000000
 H    3.323664255986   -6.604400292879    0.000000000000
 H    2.203736110311   -5.369021126755   -0.853406316077
 H    2.203736110311   -5.369021126755    0.853406316077
