17

 C   -2.354497326962    3.669294368952    0.000000000000
 H   -3.291407326962    4.239524368952    0.000000000000
 H   -2.171477326962    3.004154368952    0.853400000000
 H   -2.171477326962    3.004154368952   -0.853400000000
 C   -1.373587326962    4.871404368952    0.000000000000
 O   -1.711027326962    6.037694368952    0.000000000000
 O   -0.060047326962    4.402104368952    0.000000000000
 H    0.592052673038    5.116694368952    0.000000000000
CS   -0.017387326962    1.274644368952    0.000000000000
 O    0.098545817090   -7.224564976988    0.000000000000
 H   -0.553558805950   -7.939156936577    0.000000000000
 C    1.412087240230   -7.693865892496    0.000000000000
 O    1.749526859437   -8.860151396902    0.000000000000
 C    2.393005359972   -6.491752747255    0.000000000000
 H    3.329905932459   -7.061985700856    0.000000000000
 H    2.209977786785   -5.826606534732   -0.853406316077
 H    2.209977786785   -5.826606534732    0.853406316077
