17

 C   -2.355468246750    3.740473759526    0.000000000000
 H   -3.292378246750    4.310703759526    0.000000000000
 H   -2.172448246750    3.075333759526    0.853400000000
 H   -2.172448246750    3.075333759526   -0.853400000000
 C   -1.374558246750    4.942583759526    0.000000000000
 O   -1.711998246750    6.108873759526    0.000000000000
 O   -0.061018246750    4.473283759526    0.000000000000
 H    0.591081753250    5.187873759526    0.000000000000
CS   -0.018358246750    1.345823759526    0.000000000000
 O    0.101666655327   -7.453357680976    0.000000000000
 H   -0.550437967713   -8.167949640565    0.000000000000
 C    1.415208078467   -7.922658596484    0.000000000000
 O    1.752647697674   -9.088944100891    0.000000000000
 C    2.396126198209   -6.720545451243    0.000000000000
 H    3.333026770696   -7.290778404845    0.000000000000
 H    2.213098625021   -6.055399238721   -0.853406316077
 H    2.213098625021   -6.055399238721    0.853406316077
