17

 C   -2.356762806468    3.835379613625    0.000000000000
 H   -3.293672806468    4.405609613625    0.000000000000
 H   -2.173742806468    3.170239613625    0.853400000000
 H   -2.173742806468    3.170239613625   -0.853400000000
 C   -1.375852806468    5.037489613625    0.000000000000
 O   -1.713292806468    6.203779613625    0.000000000000
 O   -0.062312806468    4.568189613625    0.000000000000
 H    0.589787193532    5.282779613625    0.000000000000
CS   -0.019652806468    1.440729613625    0.000000000000
 O    0.105827772976   -7.758414619627    0.000000000000
 H   -0.546276850064   -8.473006579216    0.000000000000
 C    1.419369196116   -8.227715535135    0.000000000000
 O    1.756808815323   -9.394001039542    0.000000000000
 C    2.400287315858   -7.025602389894    0.000000000000
 H    3.337187888345   -7.595835343496    0.000000000000
 H    2.217259742671   -6.360456177372   -0.853406316077
 H    2.217259742671   -6.360456177372    0.853406316077
