17

 C   -2.357410086327    3.882832540675    0.000000000000
 H   -3.294320086327    4.453062540675    0.000000000000
 H   -2.174390086327    3.217692540675    0.853400000000
 H   -2.174390086327    3.217692540675   -0.853400000000
 C   -1.376500086327    5.084942540675    0.000000000000
 O   -1.713940086327    6.251232540675    0.000000000000
 O   -0.062960086327    4.615642540675    0.000000000000
 H    0.589139913673    5.330232540675    0.000000000000
CS   -0.020300086327    1.488182540675    0.000000000000
 O    0.107908331801   -7.910943088953    0.000000000000
 H   -0.544196291239   -8.625535048542    0.000000000000
 C    1.421449754940   -8.380244004461    0.000000000000
 O    1.758889374148   -9.546529508868    0.000000000000
 C    2.402367874683   -7.178130859220    0.000000000000
 H    3.339268447170   -7.748363812821    0.000000000000
 H    2.219340301495   -6.512984646698   -0.853406316077
 H    2.219340301495   -6.512984646698    0.853406316077
