17

 C   -2.358381006116    3.954011931249    0.000000000000
 H   -3.295291006116    4.524241931249    0.000000000000
 H   -2.175361006116    3.288871931249    0.853400000000
 H   -2.175361006116    3.288871931249   -0.853400000000
 C   -1.377471006116    5.156121931249    0.000000000000
 O   -1.714911006116    6.322411931249    0.000000000000
 O   -0.063931006116    4.686821931249    0.000000000000
 H    0.588168993884    5.401411931249    0.000000000000
CS   -0.021271006116    1.559361931249    0.000000000000
 O    0.111029170038   -8.139735792941    0.000000000000
 H   -0.541075453003   -8.854327752530    0.000000000000
 C    1.424570593177   -8.609036708449    0.000000000000
 O    1.762010212385   -9.775322212856    0.000000000000
 C    2.405488712919   -7.406923563208    0.000000000000
 H    3.342389285407   -7.977156516810    0.000000000000
 H    2.222461139732   -6.741777350686   -0.853406316077
 H    2.222461139732   -6.741777350686    0.853406316077
