14

 N    1.352034058274    1.895784779220   -0.007426514558
 C    0.266587115371    2.718543749048   -0.004284643337
 H    0.458107955253    3.793600721547   -0.006789241879
 C    1.270170337592    0.476514317494   -0.006408845674
 O    2.313913584910   -0.176727572567   -0.008889686986
 N   -0.003667751089   -0.065625314099    0.004204388456
 C   -1.061353863902    0.735726716776    0.001711343628
 N   -2.293346980358    0.131927687696   -0.043694479581
 H   -2.302281448679   -0.867766198815    0.125876128984
 H   -3.111924724561    0.658356007096    0.231205645216
 C   -0.992771865468    2.177103555971   -0.001772090038
 H   -1.881295581153    2.808421147215   -0.011254044065
 H    2.295974181201    2.270432991662   -0.010732410786
RB   -0.153015738791   -1.256292004245    0.007034856167
