14

 N    1.384392001665    2.153756285571   -0.008039767641
 C    0.298945058762    2.976515255399   -0.004897896420
 H    0.490465898644    4.051572227898   -0.007402494962
 C    1.302528280983    0.734485823845   -0.007022098757
 O    2.346271528301    0.081243933784   -0.009502940069
 N    0.028690192302    0.192346192252    0.003591135373
 C   -1.028995920511    0.993698223127    0.001098090545
 N   -2.260989036967    0.389899194047   -0.044307732664
 H   -2.269923505288   -0.609794692464    0.125262875901
 H   -3.079566781170    0.916327513447    0.230592392133
 C   -0.960413922077    2.435075062322   -0.002385343121
 H   -1.848937637762    3.066392653566   -0.011867297148
 H    2.328332124592    2.528404498013   -0.011345663869
RB   -0.195331789250   -1.593653842966    0.007836836939
