14

 N    1.389784992231    2.196751536629   -0.008141976488
 C    0.304338049328    3.019510506457   -0.005000105267
 H    0.495858889210    4.094567478956   -0.007504703809
 C    1.307921271549    0.777481074903   -0.007124307604
 O    2.351664518867    0.124239184842   -0.009605148916
 N    0.034083182868    0.235341443310    0.003488926526
 C   -1.023602929945    1.036693474185    0.000995881698
 N   -2.255596046401    0.432894445105   -0.044409941511
 H   -2.264530514722   -0.566799441406    0.125160667054
 H   -3.074173790604    0.959322764505    0.230490183286
 C   -0.955020931511    2.478070313380   -0.002487551968
 H   -1.843544647196    3.109387904624   -0.011969505995
 H    2.333725115158    2.571399749071   -0.011447872716
RB   -0.202384464327   -1.649880816087    0.007970500401
