14

 N    1.826617228016    5.679366872368   -0.016420893113
 C    0.741170285113    6.502125842196   -0.013279021892
 H    0.932691124995    7.577182814695   -0.015783620434
 C    1.744753507334    4.260096410642   -0.015403224229
 O    2.788496754652    3.606854520581   -0.017884065541
 N    0.470915418653    3.717956779049   -0.004789990099
 C   -0.586770694160    4.519308809924   -0.007283034927
 N   -1.818763810616    3.915509780844   -0.052688858136
 H   -1.827698278937    2.915815894333    0.116881750429
 H   -2.637341554819    4.441938100244    0.222211266661
 C   -0.518188695726    5.960685649119   -0.010766468593
 H   -1.406712411411    6.592003240363   -0.020248422620
 H    2.770557350943    6.054015084810   -0.019726789341
RB   -0.773651145528   -6.204265638830    0.018797240822
