14

 N    1.395177982796    2.239746787688   -0.008244185336
 C    0.309731039893    3.062505757516   -0.005102314115
 H    0.501251879775    4.137562730015   -0.007606912657
 C    1.313314262114    0.820476325962   -0.007226516452
 O    2.357057509432    0.167234435901   -0.009707357764
 N    0.039476173433    0.278336694369    0.003386717678
 C   -1.018209939380    1.079688725244    0.000893672850
 N   -2.250203055836    0.475889696164   -0.044512150359
 H   -2.259137524157   -0.523804190347    0.125058458206
 H   -3.068780800039    1.002318015564    0.230387974438
 C   -0.949627940946    2.521065564439   -0.002589760816
 H   -1.838151656631    3.152383155683   -0.012071714843
 H    2.339118105723    2.614395000130   -0.011550081564
RB   -0.209437139403   -1.706107789207    0.008104163863
