14

 N    1.405963963927    2.325737289805   -0.008448603030
 C    0.320517021024    3.148496259633   -0.005306731809
 H    0.512037860906    4.223553232132   -0.007811330351
 C    1.324100243245    0.906466828079   -0.007430934146
 O    2.367843490563    0.253224938018   -0.009911775458
 N    0.050262154564    0.364327196486    0.003182299984
 C   -1.007423958249    1.165679227361    0.000689255156
 N   -2.239417074705    0.561880198281   -0.044716568053
 H   -2.248351543026   -0.437813688230    0.124854040512
 H   -3.057994818908    1.088308517681    0.230183556744
 C   -0.938841959815    2.607056066556   -0.002794178510
 H   -1.827365675500    3.238373657800   -0.012276132537
 H    2.349904086854    2.700385502247   -0.011754499258
RB   -0.223542489556   -1.818561735447    0.008371490787
