14

 N    1.416749945057    2.411727791922   -0.008653020724
 C    0.331303002154    3.234486761750   -0.005511149503
 H    0.522823842036    4.309543734249   -0.008015748045
 C    1.334886224375    0.992457330196   -0.007635351840
 O    2.378629471693    0.339215440135   -0.010116193152
 N    0.061048135694    0.450317698603    0.002977882290
 C   -0.996637977119    1.251669729478    0.000484837462
 N   -2.228631093575    0.647870700398   -0.044920985747
 H   -2.237565561896   -0.351823186113    0.124649622818
 H   -3.047208837778    1.174299019798    0.229979139050
 C   -0.928055978685    2.693046568673   -0.002998596204
 H   -1.816579694370    3.324364159917   -0.012480550231
 H    2.360690067984    2.786376004364   -0.011958916952
RB   -0.237647839709   -1.931015681688    0.008638817711
