14

 N    1.432928916753    2.540713545097   -0.008959647266
 C    0.347481973850    3.363472514925   -0.005817776045
 H    0.539002813732    4.438529487424   -0.008322374587
 C    1.351065196071    1.121443083371   -0.007941978382
 O    2.394808443389    0.468201193310   -0.010422819694
 N    0.077227107390    0.579303451778    0.002671255748
 C   -0.980459005423    1.380655482653    0.000178210920
 N   -2.212452121879    0.776856453573   -0.045227612289
 H   -2.221386590200   -0.222837432938    0.124342996276
 H   -3.031029866082    1.303284772973    0.229672512508
 C   -0.911877006989    2.822032321848   -0.003305222746
 H   -1.800400722674    3.453349913092   -0.012787176773
 H    2.376869039680    2.915361757539   -0.012265543494
RB   -0.258805864939   -2.099696601049    0.009039808097
