14

 N    1.438321907318    2.583708796156   -0.009061856113
 C    0.352874964415    3.406467765984   -0.005919984892
 H    0.544395804297    4.481524738483   -0.008424583434
 C    1.356458186636    1.164438334430   -0.008044187229
 O    2.400201433954    0.511196444369   -0.010525028541
 N    0.082620097955    0.622298702837    0.002569046901
 C   -0.975066014858    1.423650733712    0.000076002073
 N   -2.207059131314    0.819851704632   -0.045329821136
 H   -2.215993599635   -0.179842181879    0.124240787429
 H   -3.025636875517    1.346280024032    0.229570303661
 C   -0.906484016424    2.865027572907   -0.003407431593
 H   -1.795007732109    3.496345164151   -0.012889385620
 H    2.382262030245    2.958357008598   -0.012367752341
RB   -0.265858540016   -2.155923574169    0.009173471559
