14

 N    1.443714897883    2.626704047214   -0.009164064961
 C    0.358267954980    3.449463017042   -0.006022193740
 H    0.549788794862    4.524519989541   -0.008526792282
 C    1.361851177201    1.207433585488   -0.008146396077
 O    2.405594424519    0.554191695427   -0.010627237389
 N    0.088013088520    0.665293953895    0.002466838053
 C   -0.969673024293    1.466645984770   -0.000026206775
 N   -2.201666140749    0.862846955690   -0.045432029984
 H   -2.210600609070   -0.136846930821    0.124138578581
 H   -3.020243884952    1.389275275090    0.229468094813
 C   -0.901091025859    2.908022823965   -0.003509640441
 H   -1.789614741544    3.539340415209   -0.012991594468
 H    2.387655020810    3.001352259656   -0.012469961189
RB   -0.272911215092   -2.212150547289    0.009307135021
