14

 N    1.470679850710    2.841680302507   -0.009675109197
 C    0.385232907807    3.664439272335   -0.006533237976
 H    0.576753747689    4.739496244834   -0.009037836518
 C    1.388816130028    1.422409840781   -0.008657440313
 O    2.432559377346    0.769167950720   -0.011138281625
 N    0.114978041347    0.880270209188    0.001955793817
 C   -0.942708071466    1.681622240063   -0.000537251011
 N   -2.174701187922    1.077823210983   -0.045943074220
 H   -2.183635656243    0.078129324472    0.123627534345
 H   -2.993278932125    1.604251530383    0.228957050577
 C   -0.874126073032    3.122999079258   -0.004020684677
 H   -1.762649788717    3.754316670502   -0.013502638704
 H    2.414619973637    3.216328514949   -0.012981005425
RB   -0.308174590475   -2.493285412891    0.009975452330
