14

 N    1.497644803536    3.056656557800   -0.010186153433
 C    0.412197860633    3.879415527628   -0.007044282212
 H    0.603718700515    4.954472500127   -0.009548880754
 C    1.415781082854    1.637386096074   -0.009168484549
 O    2.459524330172    0.984144206013   -0.011649325861
 N    0.141942994173    1.095246464481    0.001444749581
 C   -0.915743118640    1.896598495356   -0.001048295247
 N   -2.147736235096    1.292799466276   -0.046454118456
 H   -2.156670703417    0.293105579765    0.123116490109
 H   -2.966313979299    1.819227785676    0.228446006341
 C   -0.847161120206    3.337975334551   -0.004531728913
 H   -1.735684835891    3.969292925795   -0.014013682940
 H    2.441584926463    3.431304770242   -0.013492049661
RB   -0.343437965858   -2.774420278492    0.010643769640
