14

 N    1.513823775232    3.185642310975   -0.010492779974
 C    0.428376832329    4.008401280803   -0.007350908753
 H    0.619897672211    5.083458253302   -0.009855507295
 C    1.431960054550    1.766371849249   -0.009475111090
 O    2.475703301868    1.113129959188   -0.011955952402
 N    0.158121965869    1.224232217656    0.001138123040
 C   -0.899564146944    2.025584248531   -0.001354921788
 N   -2.131557263400    1.421785219451   -0.046760744997
 H   -2.140491731721    0.422091332940    0.122809863568
 H   -2.950135007603    1.948213538851    0.228139379800
 C   -0.830982148510    3.466961087726   -0.004838355454
 H   -1.719505864195    4.098278678970   -0.014320309481
 H    2.457763898159    3.560290523417   -0.013798676202
RB   -0.364595991087   -2.943101197853    0.011044760026
