14

 N    1.540788728058    3.400618566268   -0.011003824211
 C    0.455341785155    4.223377536096   -0.007861952990
 H    0.646862625037    5.298434508595   -0.010366551532
 C    1.458925007376    1.981348104542   -0.009986155327
 O    2.502668254694    1.328106214481   -0.012466996639
 N    0.185086918695    1.439208472949    0.000627078803
 C   -0.872599194118    2.240560503824   -0.001865966025
 N   -2.104592310574    1.636761474744   -0.047271789234
 H   -2.113526778895    0.637067588233    0.122298819331
 H   -2.923170054777    2.163189794144    0.227628335563
 C   -0.804017195684    3.681937343019   -0.005349399691
 H   -1.692540911369    4.313254934263   -0.014831353718
 H    2.484728850985    3.775266778710   -0.014309720439
RB   -0.399859366470   -3.224236063455    0.011713077336
