14

 N    1.567753680884    3.615594821560   -0.011514868447
 C    0.482306737981    4.438353791388   -0.008372997226
 H    0.673827577863    5.513410763887   -0.010877595768
 C    1.485889960202    2.196324359834   -0.010497199563
 O    2.529633207520    1.543082469773   -0.012978040875
 N    0.212051871521    1.654184728241    0.000116034567
 C   -0.845634241292    2.455536759116   -0.002377010261
 N   -2.077627357748    1.851737730036   -0.047782833470
 H   -2.086561826069    0.852043843525    0.121787775095
 H   -2.896205101951    2.378166049436    0.227117291327
 C   -0.777052242858    3.896913598311   -0.005860443927
 H   -1.665575958543    4.528231189555   -0.015342397954
 H    2.511693803811    3.990243034002   -0.014820764675
RB   -0.435122741853   -3.505370929056    0.012381394646
