14

 N    1.583932652580    3.744580574736   -0.011821494988
 C    0.498485709677    4.567339544564   -0.008679623767
 H    0.690006549559    5.642396517063   -0.011184222309
 C    1.502068931898    2.325310113010   -0.010803826104
 O    2.545812179216    1.672068222949   -0.013284667416
 N    0.228230843217    1.783170481417   -0.000190591974
 C   -0.829455269596    2.584522512292   -0.002683636802
 N   -2.061448386052    1.980723483212   -0.048089460011
 H   -2.070382854373    0.981029596701    0.121481148554
 H   -2.880026130255    2.507151802612    0.226810664786
 C   -0.760873271162    4.025899351487   -0.006167070468
 H   -1.649396986847    4.657216942731   -0.015649024495
 H    2.527872775507    4.119228787178   -0.015127391216
RB   -0.456280767083   -3.674051848417    0.012782385032
