14

 N    1.600111624276    3.873566327911   -0.012128121530
 C    0.514664681373    4.696325297739   -0.008986250309
 H    0.706185521255    5.771382270238   -0.011490848851
 C    1.518247903594    2.454295866185   -0.011110452646
 O    2.561991150912    1.801053976124   -0.013591293958
 N    0.244409814913    1.912156234592   -0.000497218516
 C   -0.813276297900    2.713508265467   -0.002990263344
 N   -2.045269414356    2.109709236387   -0.048396086553
 H   -2.054203882677    1.110015349876    0.121174522012
 H   -2.863847158559    2.636137555787    0.226504038244
 C   -0.744694299466    4.154885104662   -0.006473697010
 H   -1.633218015151    4.786202695906   -0.015955651037
 H    2.544051747203    4.248214540353   -0.015434017758
RB   -0.477438792312   -3.842732767778    0.013183375418
