14

 N    1.605504614841    3.916561578970   -0.012230330377
 C    0.520057671938    4.739320548798   -0.009088459156
 H    0.711578511820    5.814377521297   -0.011593057698
 C    1.523640894159    2.497291117244   -0.011212661493
 O    2.567384141477    1.844049227183   -0.013693502805
 N    0.249802805478    1.955151485651   -0.000599427363
 C   -0.807883307335    2.756503516526   -0.003092472191
 N   -2.039876423791    2.152704487446   -0.048498295400
 H   -2.048810892112    1.153010600935    0.121072313165
 H   -2.858454167994    2.679132806846    0.226401829397
 C   -0.739301308901    4.197880355721   -0.006575905857
 H   -1.627825024586    4.829197946965   -0.016057859884
 H    2.549444737768    4.291209791412   -0.015536226605
RB   -0.484491467389   -3.898959740898    0.013317038880
