14

 N    1.616290595971    4.002552081087   -0.012434748072
 C    0.530843653068    4.825311050915   -0.009292876851
 H    0.722364492950    5.900368023414   -0.011797475393
 C    1.534426875289    2.583281619361   -0.011417079188
 O    2.578170122607    1.930039729300   -0.013897920500
 N    0.260588786608    2.041141987768   -0.000803845058
 C   -0.797097326205    2.842494018643   -0.003296889886
 N   -2.029090442661    2.238694989563   -0.048702713095
 H   -2.038024910982    1.239001103052    0.120867895470
 H   -2.847668186864    2.765123308963    0.226197411702
 C   -0.728515327771    4.283870857838   -0.006780323552
 H   -1.617039043456    4.915188449082   -0.016262277579
 H    2.560230718898    4.377200293529   -0.015740644300
RB   -0.498596817542   -4.011413687139    0.013584365804
