14

 N    1.670220501624    4.432504591672   -0.013456836544
 C    0.584773558721    5.255263561500   -0.010314965323
 H    0.776294398603    6.330320533999   -0.012819563865
 C    1.588356780942    3.013234129946   -0.012439167660
 O    2.632100028260    2.359992239885   -0.014920008972
 N    0.314518692261    2.471094498353   -0.001825933530
 C   -0.743167420552    3.272446529228   -0.004318978358
 N   -1.975160537008    2.668647500148   -0.049724801567
 H   -1.984095005329    1.668953613637    0.119845806998
 H   -2.793738281211    3.195075819548    0.225175323230
 C   -0.674585422118    4.713823368423   -0.007802412024
 H   -1.563109137803    5.345140959667   -0.017284366051
 H    2.614160624551    4.807152804114   -0.016762732772
RB   -0.569123568308   -4.573683418341    0.014921000424
