14

 N    1.686399473320    4.561490344847   -0.013763463086
 C    0.600952530417    5.384249314675   -0.010621591865
 H    0.792473370299    6.459306287174   -0.013126190407
 C    1.604535752638    3.142219883121   -0.012745794202
 O    2.648278999956    2.488977993060   -0.015226635514
 N    0.330697663957    2.600080251528   -0.002132560072
 C   -0.726988448856    3.401432282403   -0.004625604900
 N   -1.958981565312    2.797633253323   -0.050031428109
 H   -1.967916033633    1.797939366812    0.119539180456
 H   -2.777559309515    3.324061572723    0.224868696688
 C   -0.658406450422    4.842809121598   -0.008109038566
 H   -1.546930166107    5.474126712842   -0.017590992593
 H    2.630339596247    4.936138557289   -0.017069359314
RB   -0.590281593537   -4.742364337702    0.015321990810
