14

 N    1.691792463885    4.604485595906   -0.013865671933
 C    0.606345520982    5.427244565734   -0.010723800712
 H    0.797866360864    6.502301538233   -0.013228399254
 C    1.609928743203    3.185215134180   -0.012848003049
 O    2.653671990521    2.531973244119   -0.015328844361
 N    0.336090654522    2.643075502587   -0.002234768919
 C   -0.721595458291    3.444427533462   -0.004727813747
 N   -1.953588574747    2.840628504382   -0.050133636956
 H   -1.962523043068    1.840934617871    0.119436971609
 H   -2.772166318950    3.367056823782    0.224766487841
 C   -0.653013459857    4.885804372657   -0.008211247413
 H   -1.541537175542    5.517121963901   -0.017693201440
 H    2.635732586812    4.979133808348   -0.017171568161
RB   -0.597334268614   -4.798591310823    0.015455654272
