14

 N    1.713364426146    4.776466600140   -0.014274507322
 C    0.627917483243    5.599225569968   -0.011132636101
 H    0.819438323125    6.674282542467   -0.013637234643
 C    1.631500705464    3.357196138414   -0.013256838438
 O    2.675243952782    2.703954248353   -0.015737679750
 N    0.357662616783    2.815056506821   -0.002643604308
 C   -0.700023496030    3.616408537696   -0.005136649136
 N   -1.932016612486    3.012609508616   -0.050542472345
 H   -1.940951080807    2.012915622105    0.119028136220
 H   -2.750594356689    3.539037828016    0.224357652452
 C   -0.631441497596    5.057785376891   -0.008620082802
 H   -1.519965213281    5.689102968135   -0.018102036829
 H    2.657304549073    5.151114812582   -0.017580403550
RB   -0.625544968920   -5.023499203304    0.015990308120
