14

 N    1.724150407277    4.862457102257   -0.014478925016
 C    0.638703464374    5.685216072085   -0.011337053795
 H    0.830224304256    6.760273044584   -0.013841652337
 C    1.642286686595    3.443186640531   -0.013461256132
 O    2.686029933913    2.789944750470   -0.015942097444
 N    0.368448597914    2.901047008938   -0.002848022002
 C   -0.689237514899    3.702399039813   -0.005341066830
 N   -1.921230631355    3.098600010733   -0.050746890039
 H   -1.930165099676    2.098906124222    0.118823718526
 H   -2.739808375558    3.625028330133    0.224153234758
 C   -0.620655516465    5.143775879008   -0.008824500496
 H   -1.509179232150    5.775093470252   -0.018306454523
 H    2.668090530204    5.237105314699   -0.017784821244
RB   -0.639650319073   -5.135953149544    0.016257635044
