14

 N    1.729543397842    4.905452353315   -0.014581133863
 C    0.644096454939    5.728211323143   -0.011439262642
 H    0.835617294821    6.803268295642   -0.013943861184
 C    1.647679677160    3.486181891589   -0.013563464979
 O    2.691422924478    2.832940001528   -0.016044306291
 N    0.373841588479    2.944042259996   -0.002950230849
 C   -0.683844524334    3.745394290871   -0.005443275677
 N   -1.915837640790    3.141595261791   -0.050849098886
 H   -1.924772109111    2.141901375280    0.118721509679
 H   -2.734415384993    3.668023581191    0.224051025911
 C   -0.615262525900    5.186771130066   -0.008926709343
 H   -1.503786241585    5.818088721310   -0.018408663370
 H    2.673483520769    5.280100565757   -0.017887030091
RB   -0.646702994150   -5.192180122665    0.016391298506
