14

 N    1.734936388407    4.948447604374   -0.014683342711
 C    0.649489445504    5.771206574202   -0.011541471490
 H    0.841010285386    6.846263546701   -0.014046070032
 C    1.653072667725    3.529177142648   -0.013665673827
 O    2.696815915043    2.875935252587   -0.016146515139
 N    0.379234579044    2.987037511055   -0.003052439697
 C   -0.678451533769    3.788389541930   -0.005545484525
 N   -1.910444650225    3.184590512850   -0.050951307734
 H   -1.919379118546    2.184896626339    0.118619300831
 H   -2.729022394428    3.711018832250    0.223948817063
 C   -0.609869535335    5.229766381125   -0.009028918191
 H   -1.498393251020    5.861083972369   -0.018510872218
 H    2.678876511334    5.323095816816   -0.017989238939
RB   -0.653755669226   -5.248407095785    0.016524961968
