14

 N    1.740329378972    4.991442855432   -0.014785551558
 C    0.654882436069    5.814201825260   -0.011643680337
 H    0.846403275951    6.889258797759   -0.014148278879
 C    1.658465658290    3.572172393706   -0.013767882674
 O    2.702208905608    2.918930503645   -0.016248723986
 N    0.384627569609    3.030032762113   -0.003154648544
 C   -0.673058543204    3.831384792988   -0.005647693372
 N   -1.905051659660    3.227585763908   -0.051053516581
 H   -1.913986127981    2.227891877397    0.118517091984
 H   -2.723629403863    3.754014083308    0.223846608216
 C   -0.604476544770    5.272761632183   -0.009131127038
 H   -1.493000260455    5.904079223427   -0.018613081065
 H    2.684269501899    5.366091067874   -0.018091447786
RB   -0.660808344303   -5.304634068905    0.016658625430
