14

 N    1.751115360103    5.077433357549   -0.014989969252
 C    0.665668417200    5.900192327377   -0.011848098031
 H    0.857189257082    6.975249299876   -0.014352696573
 C    1.669251639421    3.658162895823   -0.013972300368
 O    2.712994886739    3.004921005762   -0.016453141680
 N    0.395413550740    3.116023264230   -0.003359066238
 C   -0.662272562073    3.917375295105   -0.005852111066
 N   -1.894265678529    3.313576266025   -0.051257934275
 H   -1.903200146850    2.313882379514    0.118312674290
 H   -2.712843422732    3.840004585425    0.223642190522
 C   -0.593690563639    5.358752134300   -0.009335544732
 H   -1.482214279324    5.990069725544   -0.018817498759
 H    2.695055483030    5.452081569991   -0.018295865480
RB   -0.674913694456   -5.417088015146    0.016925952354
