14

 N    1.761901341233    5.163423859666   -0.015194386947
 C    0.676454398330    5.986182829494   -0.012052515726
 H    0.867975238212    7.061239801993   -0.014557114268
 C    1.680037620551    3.744153397940   -0.014176718063
 O    2.723780867869    3.090911507879   -0.016657559375
 N    0.406199531870    3.202013766347   -0.003563483933
 C   -0.651486580943    4.003365797222   -0.006056528761
 N   -1.883479697399    3.399566768142   -0.051462351970
 H   -1.892414165720    2.399872881631    0.118108256595
 H   -2.702057441602    3.925995087542    0.223437772827
 C   -0.582904582509    5.444742636417   -0.009539962427
 H   -1.471428298194    6.076060227661   -0.019021916454
 H    2.705841464160    5.538072072108   -0.018500283175
RB   -0.689019044609   -5.529541961386    0.017193279278
