14

 N    1.778080312929    5.292409612842   -0.015501013488
 C    0.692633370026    6.115168582670   -0.012359142267
 H    0.884154209908    7.190225555169   -0.014863740809
 C    1.696216592247    3.873139151116   -0.014483344604
 O    2.739959839565    3.219897261055   -0.016964185916
 N    0.422378503566    3.330999519523   -0.003870110474
 C   -0.635307609247    4.132351550398   -0.006363155302
 N   -1.867300725703    3.528552521318   -0.051768978511
 H   -1.876235194024    2.528858634807    0.117801630054
 H   -2.685878469906    4.054980840718    0.223131146286
 C   -0.566725610813    5.573728389593   -0.009846588968
 H   -1.455249326498    6.205045980837   -0.019328542995
 H    2.722020435856    5.667057825284   -0.018806909716
RB   -0.710177069839   -5.698222880747    0.017594269664
