14

 N    1.805045265755    5.507385868134   -0.016012057724
 C    0.719598322852    6.330144837962   -0.012870186503
 H    0.911119162734    7.405201810461   -0.015374785045
 C    1.723181545073    4.088115406408   -0.014994388840
 O    2.766924792391    3.434873516347   -0.017475230152
 N    0.449343456392    3.545975774815   -0.004381154710
 C   -0.608342656421    4.347327805690   -0.006874199538
 N   -1.840335772877    3.743528776610   -0.052280022747
 H   -1.849270241198    2.743834890099    0.117290585818
 H   -2.658913517080    4.269957096010    0.222620102050
 C   -0.539760657987    5.788704644885   -0.010357633204
 H   -1.428284373672    6.420022236129   -0.019839587231
 H    2.748985388682    5.882034080576   -0.019317953952
RB   -0.745440445222   -5.979357746349    0.018262586974
