14

 N    1.815831246886    5.593376370251   -0.016216475419
 C    0.730384303983    6.416135340079   -0.013074604198
 H    0.921905143865    7.491192312578   -0.015579202740
 C    1.733967526204    4.174105908525   -0.015198806535
 O    2.777710773522    3.520864018464   -0.017679647847
 N    0.460129437523    3.631966276932   -0.004585572405
 C   -0.597556675290    4.433318307807   -0.007078617233
 N   -1.829549791746    3.829519278727   -0.052484440442
 H   -1.838484260067    2.829825392216    0.117086168123
 H   -2.648127535949    4.355947598127    0.222415684355
 C   -0.528974676856    5.874695147002   -0.010562050899
 H   -1.417498392541    6.506012738246   -0.020044004926
 H    2.759771369813    5.968024582693   -0.019522371647
RB   -0.759545795375   -6.091811692589    0.018529913898
