25

 C   -5.839620331978    0.036033790682    0.000000000000
 H   -6.933190331978    0.043953790682    0.000000000000
 C   -5.107450331978    1.240043790682    0.000000000000
 H   -5.637380331978    2.199503790682    0.000000000000
 C   -5.125060331978   -1.178456209318    0.000000000000
 H   -5.668900331978   -2.130116209318    0.000000000000
 C   -3.703050331978    1.232413790682    0.000000000000
 H   -3.146120331978    2.175543790682    0.000000000000
 C   -3.720690331978   -1.191266209318    0.000000000000
 H   -3.177540331978   -2.142386209318    0.000000000000
 C   -2.945730331978    0.014953790682    0.000000000000
 O   -1.640860331978    0.005113790682    0.000000000000
NA    0.433689668022   -0.001356209318    0.000000000000
 O    1.533684318435   -0.004786816142    0.000000000000
 C    2.838557275218   -0.014619148364    0.000000000000
 C    3.595885639381   -1.232078598585    0.000000000000
 H    3.038960410368   -2.175208745166    0.000000000000
 C    5.000284927590   -1.239705896909    0.000000000000
 H    5.530216938866   -2.199165864716    0.000000000000
 C    5.732450614107   -0.035697122030    0.000000000000
 H    6.826021931680   -0.043617562867    0.000000000000
 C    5.017892312730    1.178797598433    0.000000000000
 H    5.561730974379    2.130455519220    0.000000000000
 C    3.613520681321    1.191601730289    0.000000000000
 H    3.070366605511    2.142717878996    0.000000000000
