25

 C   -5.928623053327    0.036311367799    0.000000000000
 H   -7.022193053327    0.044231367799    0.000000000000
 C   -5.196453053327    1.240321367799    0.000000000000
 H   -5.726383053327    2.199781367799    0.000000000000
 C   -5.214063053327   -1.178178632201    0.000000000000
 H   -5.757903053327   -2.129838632201    0.000000000000
 C   -3.792053053327    1.232691367799    0.000000000000
 H   -3.235123053327    2.175821367799    0.000000000000
 C   -3.809693053327   -1.190988632201    0.000000000000
 H   -3.266543053327   -2.142108632201    0.000000000000
 C   -3.034733053327    0.015231367799    0.000000000000
 O   -1.729863053327    0.005391367799    0.000000000000
NA    0.344686946673   -0.001078632201    0.000000000000
 O    1.644680624434   -0.005132985721    0.000000000000
 C    2.949553581217   -0.014965317943    0.000000000000
 C    3.706881945380   -1.232424768164    0.000000000000
 H    3.149956716367   -2.175554914745    0.000000000000
 C    5.111281233589   -1.240052066488    0.000000000000
 H    5.641213244865   -2.199512034295    0.000000000000
 C    5.843446920106   -0.036043291608    0.000000000000
 H    6.937018237679   -0.043963732446    0.000000000000
 C    5.128888618729    1.178451428855    0.000000000000
 H    5.672727280378    2.130109349641    0.000000000000
 C    3.724516987320    1.191255560710    0.000000000000
 H    3.181362911510    2.142371709417    0.000000000000
