25

 C   -5.973124414001    0.036450156357    0.000000000000
 H   -7.066694414001    0.044370156357    0.000000000000
 C   -5.240954414001    1.240460156357    0.000000000000
 H   -5.770884414001    2.199920156357    0.000000000000
 C   -5.258564414001   -1.178039843643    0.000000000000
 H   -5.802404414001   -2.129699843643    0.000000000000
 C   -3.836554414001    1.232830156357    0.000000000000
 H   -3.279624414001    2.175960156357    0.000000000000
 C   -3.854194414001   -1.190849843643    0.000000000000
 H   -3.311044414001   -2.141969843643    0.000000000000
 C   -3.079234414001    0.015370156357    0.000000000000
 O   -1.774364414001    0.005530156357    0.000000000000
NA    0.300185585999   -0.000939843643    0.000000000000
 O    1.700178777433   -0.005306070511    0.000000000000
 C    3.005051734216   -0.015138402732    0.000000000000
 C    3.762380098380   -1.232597852954    0.000000000000
 H    3.205454869367   -2.175727999534    0.000000000000
 C    5.166779386588   -1.240225151277    0.000000000000
 H    5.696711397865   -2.199685119084    0.000000000000
 C    5.898945073106   -0.036216376398    0.000000000000
 H    6.992516390678   -0.044136817235    0.000000000000
 C    5.184386771729    1.178278344065    0.000000000000
 H    5.728225433377    2.129936264852    0.000000000000
 C    3.780015140319    1.191082475921    0.000000000000
 H    3.236861064509    2.142198624628    0.000000000000
