25

 C   -6.195631217373    0.037144099148    0.000000000000
 H   -7.289201217373    0.045064099148    0.000000000000
 C   -5.463461217373    1.241154099148    0.000000000000
 H   -5.993391217373    2.200614099148    0.000000000000
 C   -5.481071217373   -1.177345900852    0.000000000000
 H   -6.024911217373   -2.129005900852    0.000000000000
 C   -4.059061217373    1.233524099148    0.000000000000
 H   -3.502131217373    2.176654099148    0.000000000000
 C   -4.076701217373   -1.190155900852    0.000000000000
 H   -3.533551217373   -2.141275900852    0.000000000000
 C   -3.301741217373    0.016064099148    0.000000000000
 O   -1.996871217373    0.006224099148    0.000000000000
NA    0.077678782627   -0.000245900852    0.000000000000
 O    1.977669542431   -0.006171494458    0.000000000000
 C    3.282542499214   -0.016003826680    0.000000000000
 C    4.039870863377   -1.233463276901    0.000000000000
 H    3.482945634364   -2.176593423481    0.000000000000
 C    5.444270151586   -1.241090575224    0.000000000000
 H    5.974202162863   -2.200550543031    0.000000000000
 C    6.176435838104   -0.037081800345    0.000000000000
 H    7.270007155676   -0.045002241182    0.000000000000
 C    5.461877536726    1.177412920118    0.000000000000
 H    6.005716198375    2.129070840905    0.000000000000
 C    4.057505905317    1.190217051974    0.000000000000
 H    3.514351829507    2.141333200681    0.000000000000
