25

 C   -6.329135299396    0.037560464823    0.000000000000
 H   -7.422705299396    0.045480464823    0.000000000000
 C   -5.596965299396    1.241570464823    0.000000000000
 H   -6.126895299396    2.201030464823    0.000000000000
 C   -5.614575299396   -1.176929535177    0.000000000000
 H   -6.158415299396   -2.128589535177    0.000000000000
 C   -4.192565299396    1.233940464823    0.000000000000
 H   -3.635635299396    2.177070464823    0.000000000000
 C   -4.210205299396   -1.189739535177    0.000000000000
 H   -3.667055299396   -2.140859535177    0.000000000000
 C   -3.435245299396    0.016480464823    0.000000000000
 O   -2.130375299396    0.006640464823    0.000000000000
NA   -0.055825299396    0.000170464823    0.000000000000
 O    2.144164001430   -0.006690748826    0.000000000000
 C    3.449036958212   -0.016523081048    0.000000000000
 C    4.206365322376   -1.233982531269    0.000000000000
 H    3.649440093363   -2.177112677850    0.000000000000
 C    5.610764610584   -1.241609829593    0.000000000000
 H    6.140696621861   -2.201069797400    0.000000000000
 C    6.342930297102   -0.037601054713    0.000000000000
 H    7.436501614675   -0.045521495550    0.000000000000
 C    5.628371995725    1.176893665750    0.000000000000
 H    6.172210657374    2.128551586536    0.000000000000
 C    4.224000364315    1.189697797605    0.000000000000
 H    3.680846288506    2.140813946312    0.000000000000
