25

 C   -6.373636660070    0.037699253381    0.000000000000
 H   -7.467206660070    0.045619253381    0.000000000000
 C   -5.641466660070    1.241709253381    0.000000000000
 H   -6.171396660070    2.201169253381    0.000000000000
 C   -5.659076660070   -1.176790746619    0.000000000000
 H   -6.202916660070   -2.128450746619    0.000000000000
 C   -4.237066660070    1.234079253381    0.000000000000
 H   -3.680136660070    2.177209253381    0.000000000000
 C   -4.254706660070   -1.189600746619    0.000000000000
 H   -3.711556660070   -2.140720746619    0.000000000000
 C   -3.479746660070    0.016619253381    0.000000000000
 O   -2.174876660070    0.006779253381    0.000000000000
NA   -0.100326660070    0.000309253381    0.000000000000
 O    2.199662154429   -0.006863833616    0.000000000000
 C    3.504535111212   -0.016696165837    0.000000000000
 C    4.261863475376   -1.234155616059    0.000000000000
 H    3.704938246363   -2.177285762639    0.000000000000
 C    5.666262763584   -1.241782914382    0.000000000000
 H    6.196194774861   -2.201242882189    0.000000000000
 C    6.398428450102   -0.037774139503    0.000000000000
 H    7.491999767674   -0.045694580340    0.000000000000
 C    5.683870148724    1.176720580960    0.000000000000
 H    6.227708810373    2.128378501747    0.000000000000
 C    4.279498517315    1.189524712816    0.000000000000
 H    3.736344441505    2.140640861523    0.000000000000
