25

 C   -6.462639381419    0.037976830498    0.000000000000
 H   -7.556209381419    0.045896830498    0.000000000000
 C   -5.730469381419    1.241986830498    0.000000000000
 H   -6.260399381419    2.201446830498    0.000000000000
 C   -5.748079381419   -1.176513169502    0.000000000000
 H   -6.291919381419   -2.128173169502    0.000000000000
 C   -4.326069381419    1.234356830498    0.000000000000
 H   -3.769139381419    2.177486830498    0.000000000000
 C   -4.343709381419   -1.189323169502    0.000000000000
 H   -3.800559381419   -2.140443169502    0.000000000000
 C   -3.568749381419    0.016896830498    0.000000000000
 O   -2.263879381419    0.007056830498    0.000000000000
NA   -0.189329381419    0.000586830498    0.000000000000
 O    2.310658460428   -0.007210003194    0.000000000000
 C    3.615531417211   -0.017042335416    0.000000000000
 C    4.372859781375   -1.234501785637    0.000000000000
 H    3.815934552362   -2.177631932218    0.000000000000
 C    5.777259069583   -1.242129083961    0.000000000000
 H    6.307191080860   -2.201589051768    0.000000000000
 C    6.509424756101   -0.038120309082    0.000000000000
 H    7.602996073673   -0.046040749919    0.000000000000
 C    5.794866454723    1.176374411381    0.000000000000
 H    6.338705116372    2.128032332168    0.000000000000
 C    4.390494823314    1.189178543237    0.000000000000
 H    3.847340747504    2.140294691944    0.000000000000
