25

 C   -6.596143463442    0.038393196173    0.000000000000
 H   -7.689713463442    0.046313196173    0.000000000000
 C   -5.863973463442    1.242403196173    0.000000000000
 H   -6.393903463442    2.201863196173    0.000000000000
 C   -5.881583463442   -1.176096803827    0.000000000000
 H   -6.425423463442   -2.127756803827    0.000000000000
 C   -4.459573463442    1.234773196173    0.000000000000
 H   -3.902643463442    2.177903196173    0.000000000000
 C   -4.477213463442   -1.188906803827    0.000000000000
 H   -3.934063463442   -2.140026803827    0.000000000000
 C   -3.702253463442    0.017313196173    0.000000000000
 O   -2.397383463442    0.007473196173    0.000000000000
NA   -0.322833463442    0.001003196173    0.000000000000
 O    2.477152919427   -0.007729257563    0.000000000000
 C    3.782025876209   -0.017561589784    0.000000000000
 C    4.539354240373   -1.235021040006    0.000000000000
 H    3.982429011360   -2.178151186586    0.000000000000
 C    5.943753528582   -1.242648338329    0.000000000000
 H    6.473685539858   -2.202108306136    0.000000000000
 C    6.675919215099   -0.038639563450    0.000000000000
 H    7.769490532672   -0.046560004287    0.000000000000
 C    5.961360913722    1.175855157013    0.000000000000
 H    6.505199575371    2.127513077800    0.000000000000
 C    4.556989282313    1.188659288869    0.000000000000
 H    4.013835206503    2.139775437576    0.000000000000
