25

 C   -6.640644824117    0.038531984731    0.000000000000
 H   -7.734214824117    0.046451984731    0.000000000000
 C   -5.908474824117    1.242541984731    0.000000000000
 H   -6.438404824117    2.202001984731    0.000000000000
 C   -5.926084824117   -1.175958015269    0.000000000000
 H   -6.469924824117   -2.127618015269    0.000000000000
 C   -4.504074824117    1.234911984731    0.000000000000
 H   -3.947144824117    2.178041984731    0.000000000000
 C   -4.521714824117   -1.188768015269    0.000000000000
 H   -3.978564824117   -2.139888015269    0.000000000000
 C   -3.746754824117    0.017451984731    0.000000000000
 O   -2.441884824117    0.007611984731    0.000000000000
NA   -0.367334824117    0.001141984731    0.000000000000
 O    2.532651072426   -0.007902342352    0.000000000000
 C    3.837524029209   -0.017734674574    0.000000000000
 C    4.594852393373   -1.235194124795    0.000000000000
 H    4.037927164360   -2.178324271376    0.000000000000
 C    5.999251681581   -1.242821423119    0.000000000000
 H    6.529183692858   -2.202281390925    0.000000000000
 C    6.731417368099   -0.038812648239    0.000000000000
 H    7.824988685671   -0.046733089076    0.000000000000
 C    6.016859066722    1.175682072224    0.000000000000
 H    6.560697728370    2.127339993010    0.000000000000
 C    4.612487435312    1.188486204079    0.000000000000
 H    4.069333359502    2.139602352786    0.000000000000
