25

 C   -6.774148906140    0.038948350406    0.000000000000
 H   -7.867718906140    0.046868350406    0.000000000000
 C   -6.041978906140    1.242958350406    0.000000000000
 H   -6.571908906140    2.202418350406    0.000000000000
 C   -6.059588906140   -1.175541649594    0.000000000000
 H   -6.603428906140   -2.127201649594    0.000000000000
 C   -4.637578906140    1.235328350406    0.000000000000
 H   -4.080648906140    2.178458350406    0.000000000000
 C   -4.655218906140   -1.188351649594    0.000000000000
 H   -4.112068906140   -2.139471649594    0.000000000000
 C   -3.880258906140    0.017868350406    0.000000000000
 O   -2.575388906140    0.008028350406    0.000000000000
NA   -0.500838906140    0.001558350406    0.000000000000
 O    2.699145531425   -0.008421596720    0.000000000000
 C    4.004018488208   -0.018253928942    0.000000000000
 C    4.761346852371   -1.235713379163    0.000000000000
 H    4.204421623358   -2.178843525744    0.000000000000
 C    6.165746140580   -1.243340677487    0.000000000000
 H    6.695678151856   -2.202800645294    0.000000000000
 C    6.897911827097   -0.039331902608    0.000000000000
 H    7.991483144670   -0.047252343445    0.000000000000
 C    6.183353525720    1.175162817856    0.000000000000
 H    6.727192187369    2.126820738642    0.000000000000
 C    4.778981894311    1.187966949711    0.000000000000
 H    4.235827818501    2.139083098418    0.000000000000
