25

 C   -6.863151627489    0.039225927522    0.000000000000
 H   -7.956721627489    0.047145927522    0.000000000000
 C   -6.130981627489    1.243235927522    0.000000000000
 H   -6.660911627489    2.202695927522    0.000000000000
 C   -6.148591627489   -1.175264072478    0.000000000000
 H   -6.692431627489   -2.126924072478    0.000000000000
 C   -4.726581627489    1.235605927522    0.000000000000
 H   -4.169651627489    2.178735927522    0.000000000000
 C   -4.744221627489   -1.188074072478    0.000000000000
 H   -4.201071627489   -2.139194072478    0.000000000000
 C   -3.969261627489    0.018145927522    0.000000000000
 O   -2.664391627489    0.008305927522    0.000000000000
NA   -0.589841627489    0.001835927522    0.000000000000
 O    2.810141837424   -0.008767766299    0.000000000000
 C    4.115014794207   -0.018600098521    0.000000000000
 C    4.872343158370   -1.236059548742    0.000000000000
 H    4.315417929357   -2.179189695323    0.000000000000
 C    6.276742446579   -1.243686847066    0.000000000000
 H    6.806674457855   -2.203146814873    0.000000000000
 C    7.008908133096   -0.039678072186    0.000000000000
 H    8.102479450669   -0.047598513024    0.000000000000
 C    6.294349831719    1.174816648277    0.000000000000
 H    6.838188493368    2.126474569063    0.000000000000
 C    4.889978200310    1.187620780132    0.000000000000
 H    4.346824124500    2.138736928839    0.000000000000
