25

 C   -6.996655709512    0.039642293197    0.000000000000
 H   -8.090225709512    0.047562293197    0.000000000000
 C   -6.264485709512    1.243652293197    0.000000000000
 H   -6.794415709512    2.203112293197    0.000000000000
 C   -6.282095709512   -1.174847706803    0.000000000000
 H   -6.825935709512   -2.126507706803    0.000000000000
 C   -4.860085709512    1.236022293197    0.000000000000
 H   -4.303155709512    2.179152293197    0.000000000000
 C   -4.877725709512   -1.187657706803    0.000000000000
 H   -4.334575709512   -2.138777706803    0.000000000000
 C   -4.102765709512    0.018562293197    0.000000000000
 O   -2.797895709512    0.008722293197    0.000000000000
NA   -0.723345709512    0.002252293197    0.000000000000
 O    2.976636296422   -0.009287020668    0.000000000000
 C    4.281509253205   -0.019119352889    0.000000000000
 C    5.038837617369   -1.236578803111    0.000000000000
 H    4.481912388356   -2.179708949691    0.000000000000
 C    6.443236905577   -1.244206101434    0.000000000000
 H    6.973168916854   -2.203666069241    0.000000000000
 C    7.175402592095   -0.040197326555    0.000000000000
 H    8.268973909667   -0.048117767392    0.000000000000
 C    6.460844290718    1.174297393908    0.000000000000
 H    7.004682952367    2.125955314695    0.000000000000
 C    5.056472659308    1.187101525764    0.000000000000
 H    4.513318583498    2.138217674471    0.000000000000
