25

 C   -7.441669316255    0.041030178780    0.000000000000
 H   -8.535239316255    0.048950178780    0.000000000000
 C   -6.709499316255    1.245040178780    0.000000000000
 H   -7.239429316255    2.204500178780    0.000000000000
 C   -6.727109316255   -1.173459821220    0.000000000000
 H   -7.270949316255   -2.125119821220    0.000000000000
 C   -5.305099316255    1.237410178780    0.000000000000
 H   -4.748169316255    2.180540178780    0.000000000000
 C   -5.322739316255   -1.186269821220    0.000000000000
 H   -4.779589316255   -2.137389821220    0.000000000000
 C   -4.547779316255    0.019950178780    0.000000000000
 O   -3.242909316255    0.010110178780    0.000000000000
NA   -1.168359316255    0.003640178780    0.000000000000
 O    3.531617826418   -0.011017868562    0.000000000000
 C    4.836490783200   -0.020850200784    0.000000000000
 C    5.593819147364   -1.238309651005    0.000000000000
 H    5.036893918351   -2.181439797585    0.000000000000
 C    6.998218435573   -1.245936949328    0.000000000000
 H    7.528150446849   -2.205396917135    0.000000000000
 C    7.730384122090   -0.041928174449    0.000000000000
 H    8.823955439663   -0.049848615286    0.000000000000
 C    7.015825820713    1.172566546014    0.000000000000
 H    7.559664482362    2.124224466801    0.000000000000
 C    5.611454189304    1.185370677870    0.000000000000
 H    5.068300113494    2.136486826577    0.000000000000
