25

 C   -7.664176119627    0.041724121571    0.000000000000
 H   -8.757746119627    0.049644121571    0.000000000000
 C   -6.932006119627    1.245734121571    0.000000000000
 H   -7.461936119627    2.205194121571    0.000000000000
 C   -6.949616119627   -1.172765878429    0.000000000000
 H   -7.493456119627   -2.124425878429    0.000000000000
 C   -5.527606119627    1.238104121571    0.000000000000
 H   -4.970676119627    2.181234121571    0.000000000000
 C   -5.545246119627   -1.185575878429    0.000000000000
 H   -5.002096119627   -2.136695878429    0.000000000000
 C   -4.770286119627    0.020644121571    0.000000000000
 O   -3.465416119627    0.010804121571    0.000000000000
NA   -1.390866119627    0.004334121571    0.000000000000
 O    3.809108591415   -0.011883292509    0.000000000000
 C    5.113981548198   -0.021715624731    0.000000000000
 C    5.871309912362   -1.239175074952    0.000000000000
 H    5.314384683349   -2.182305221532    0.000000000000
 C    7.275709200570   -1.246802373275    0.000000000000
 H    7.805641211847   -2.206262341082    0.000000000000
 C    8.007874887088   -0.042793598396    0.000000000000
 H    9.101446204660   -0.050714039233    0.000000000000
 C    7.293316585711    1.171701122067    0.000000000000
 H    7.837155247359    2.123359042854    0.000000000000
 C    5.888944954301    1.184505253922    0.000000000000
 H    5.345790878491    2.135621402629    0.000000000000
