25

 C   -7.753178840976    0.042001698688    0.000000000000
 H   -8.846748840976    0.049921698688    0.000000000000
 C   -7.021008840976    1.246011698688    0.000000000000
 H   -7.550938840976    2.205471698688    0.000000000000
 C   -7.038618840976   -1.172488301312    0.000000000000
 H   -7.582458840976   -2.124148301312    0.000000000000
 C   -5.616608840976    1.238381698688    0.000000000000
 H   -5.059678840976    2.181511698688    0.000000000000
 C   -5.634248840976   -1.185298301312    0.000000000000
 H   -5.091098840976   -2.136418301312    0.000000000000
 C   -4.859288840976    0.020921698688    0.000000000000
 O   -3.554418840976    0.011081698688    0.000000000000
NA   -1.479868840976    0.004611698688    0.000000000000
 O    3.920104897414   -0.012229462088    0.000000000000
 C    5.224977854197   -0.022061794310    0.000000000000
 C    5.982306218361   -1.239521244531    0.000000000000
 H    5.425380989348   -2.182651391111    0.000000000000
 C    7.386705506569   -1.247148542854    0.000000000000
 H    7.916637517846   -2.206608510661    0.000000000000
 C    8.118871193087   -0.043139767975    0.000000000000
 H    9.212442510659   -0.051060208812    0.000000000000
 C    7.404312891710    1.171354952488    0.000000000000
 H    7.948151553358    2.123012873275    0.000000000000
 C    5.999941260300    1.184159084344    0.000000000000
 H    5.456787184490    2.135275233051    0.000000000000
