25

 C   -7.886682922999    0.042418064363    0.000000000000
 H   -8.980252922999    0.050338064363    0.000000000000
 C   -7.154512922999    1.246428064363    0.000000000000
 H   -7.684442922999    2.205888064363    0.000000000000
 C   -7.172122922999   -1.172071935637    0.000000000000
 H   -7.715962922999   -2.123731935637    0.000000000000
 C   -5.750112922999    1.238798064363    0.000000000000
 H   -5.193182922999    2.181928064363    0.000000000000
 C   -5.767752922999   -1.184881935637    0.000000000000
 H   -5.224602922999   -2.136001935637    0.000000000000
 C   -4.992792922999    0.021338064363    0.000000000000
 O   -3.687922922999    0.011498064363    0.000000000000
NA   -1.613372922999    0.005028064363    0.000000000000
 O    4.086599356413   -0.012748716456    0.000000000000
 C    5.391472313196   -0.022581048678    0.000000000000
 C    6.148800677359   -1.240040498899    0.000000000000
 H    5.591875448346   -2.183170645480    0.000000000000
 C    7.553199965568   -1.247667797222    0.000000000000
 H    8.083131976845   -2.207127765029    0.000000000000
 C    8.285365652085   -0.043659022343    0.000000000000
 H    9.378936969658   -0.051579463180    0.000000000000
 C    7.570807350708    1.170835698120    0.000000000000
 H    8.114646012357    2.122493618906    0.000000000000
 C    6.166435719299    1.183639829975    0.000000000000
 H    5.623281643489    2.134755978682    0.000000000000
