25

 C   -7.975685644348    0.042695641479    0.000000000000
 H   -9.069255644348    0.050615641479    0.000000000000
 C   -7.243515644348    1.246705641479    0.000000000000
 H   -7.773445644348    2.206165641479    0.000000000000
 C   -7.261125644348   -1.171794358521    0.000000000000
 H   -7.804965644348   -2.123454358521    0.000000000000
 C   -5.839115644348    1.239075641479    0.000000000000
 H   -5.282185644348    2.182205641479    0.000000000000
 C   -5.856755644348   -1.184604358521    0.000000000000
 H   -5.313605644348   -2.135724358521    0.000000000000
 C   -5.081795644348    0.021615641479    0.000000000000
 O   -3.776925644348    0.011775641479    0.000000000000
NA   -1.702375644348    0.005305641479    0.000000000000
 O    4.197595662412   -0.013094886035    0.000000000000
 C    5.502468619195   -0.022927218257    0.000000000000
 C    6.259796983358   -1.240386668478    0.000000000000
 H    5.702871754345   -2.183516815058    0.000000000000
 C    7.664196271567   -1.248013966801    0.000000000000
 H    8.194128282844   -2.207473934608    0.000000000000
 C    8.396361958085   -0.044005191922    0.000000000000
 H    9.489933275657   -0.051925632759    0.000000000000
 C    7.681803656707    1.170489528541    0.000000000000
 H    8.225642318356    2.122147449328    0.000000000000
 C    6.277432025298    1.183293660396    0.000000000000
 H    5.734277949488    2.134409809103    0.000000000000
