25

 C   -8.020187005022    0.042834430038    0.000000000000
 H   -9.113757005022    0.050754430038    0.000000000000
 C   -7.288017005022    1.246844430038    0.000000000000
 H   -7.817947005022    2.206304430038    0.000000000000
 C   -7.305627005022   -1.171655569962    0.000000000000
 H   -7.849467005022   -2.123315569962    0.000000000000
 C   -5.883617005022    1.239214430038    0.000000000000
 H   -5.326687005022    2.182344430038    0.000000000000
 C   -5.901257005022   -1.184465569962    0.000000000000
 H   -5.358107005022   -2.135585569962    0.000000000000
 C   -5.126297005022    0.021754430038    0.000000000000
 O   -3.821427005022    0.011914430038    0.000000000000
NA   -1.746877005022    0.005444430038    0.000000000000
 O    4.253093815411   -0.013267970824    0.000000000000
 C    5.557966772194   -0.023100303046    0.000000000000
 C    6.315295136358   -1.240559753267    0.000000000000
 H    5.758369907345   -2.183689899848    0.000000000000
 C    7.719694424566   -1.248187051591    0.000000000000
 H    8.249626435843   -2.207647019398    0.000000000000
 C    8.451860111084   -0.044178276712    0.000000000000
 H    9.545431428656   -0.052098717549    0.000000000000
 C    7.737301809707    1.170316443752    0.000000000000
 H    8.281140471356    2.121974364538    0.000000000000
 C    6.332930178297    1.183120575607    0.000000000000
 H    5.789776102488    2.134236724314    0.000000000000
