25

 C   -8.109189726371    0.043112007154    0.000000000000
 H   -9.202759726371    0.051032007154    0.000000000000
 C   -7.377019726371    1.247122007154    0.000000000000
 H   -7.906949726371    2.206582007154    0.000000000000
 C   -7.394629726371   -1.171377992846    0.000000000000
 H   -7.938469726371   -2.123037992846    0.000000000000
 C   -5.972619726371    1.239492007154    0.000000000000
 H   -5.415689726371    2.182622007154    0.000000000000
 C   -5.990259726371   -1.184187992846    0.000000000000
 H   -5.447109726371   -2.135307992846    0.000000000000
 C   -5.215299726371    0.022032007154    0.000000000000
 O   -3.910429726371    0.012192007154    0.000000000000
NA   -1.835879726371    0.005722007154    0.000000000000
 O    4.364090121410   -0.013614140403    0.000000000000
 C    5.668963078193   -0.023446472625    0.000000000000
 C    6.426291442357   -1.240905922846    0.000000000000
 H    5.869366213344   -2.184036069427    0.000000000000
 C    7.830690730565   -1.248533221170    0.000000000000
 H    8.360622741842   -2.207993188977    0.000000000000
 C    8.562856417083   -0.044524446290    0.000000000000
 H    9.656427734655   -0.052444887128    0.000000000000
 C    7.848298115706    1.169970274173    0.000000000000
 H    8.392136777355    2.121628194959    0.000000000000
 C    6.443926484296    1.182774406028    0.000000000000
 H    5.900772408487    2.133890554735    0.000000000000
