25

 C   -8.153691087045    0.043250795712    0.000000000000
 H   -9.247261087045    0.051170795712    0.000000000000
 C   -7.421521087045    1.247260795712    0.000000000000
 H   -7.951451087045    2.206720795712    0.000000000000
 C   -7.439131087045   -1.171239204288    0.000000000000
 H   -7.982971087045   -2.122899204288    0.000000000000
 C   -6.017121087045    1.239630795712    0.000000000000
 H   -5.460191087045    2.182760795712    0.000000000000
 C   -6.034761087045   -1.184049204288    0.000000000000
 H   -5.491611087045   -2.135169204288    0.000000000000
 C   -5.259801087045    0.022170795712    0.000000000000
 O   -3.954931087045    0.012330795712    0.000000000000
NA   -1.880381087045    0.005860795712    0.000000000000
 O    4.419588274410   -0.013787225193    0.000000000000
 C    5.724461231193   -0.023619557414    0.000000000000
 C    6.481789595356   -1.241079007636    0.000000000000
 H    5.924864366343   -2.184209154216    0.000000000000
 C    7.886188883565   -1.248706305959    0.000000000000
 H    8.416120894842   -2.208166273766    0.000000000000
 C    8.618354570083   -0.044697531080    0.000000000000
 H    9.711925887655   -0.052617971917    0.000000000000
 C    7.903796268705    1.169797189383    0.000000000000
 H    8.447634930354    2.121455110170    0.000000000000
 C    6.499424637296    1.182601321239    0.000000000000
 H    5.956270561486    2.133717469946    0.000000000000
