25

 C   -8.198192447720    0.043389584271    0.000000000000
 H   -9.291762447720    0.051309584271    0.000000000000
 C   -7.466022447720    1.247399584271    0.000000000000
 H   -7.995952447720    2.206859584271    0.000000000000
 C   -7.483632447720   -1.171100415729    0.000000000000
 H   -8.027472447720   -2.122760415729    0.000000000000
 C   -6.061622447720    1.239769584271    0.000000000000
 H   -5.504692447720    2.182899584271    0.000000000000
 C   -6.079262447720   -1.183910415729    0.000000000000
 H   -5.536112447720   -2.135030415729    0.000000000000
 C   -5.304302447720    0.022309584271    0.000000000000
 O   -3.999432447720    0.012469584271    0.000000000000
NA   -1.924882447720    0.005999584271    0.000000000000
 O    4.475086427410   -0.013960309982    0.000000000000
 C    5.779959384192   -0.023792642204    0.000000000000
 C    6.537287748356   -1.241252092425    0.000000000000
 H    5.980362519343   -2.184382239006    0.000000000000
 C    7.941687036564   -1.248879390748    0.000000000000
 H    8.471619047841   -2.208339358555    0.000000000000
 C    8.673852723082   -0.044870615869    0.000000000000
 H    9.767424040655   -0.052791056706    0.000000000000
 C    7.959294421705    1.169624104594    0.000000000000
 H    8.503133083354    2.121282025380    0.000000000000
 C    6.554922790295    1.182428236449    0.000000000000
 H    6.011768714486    2.133544385156    0.000000000000
