25

 C   -8.376197890417    0.043944738504    0.000000000000
 H   -9.469767890417    0.051864738504    0.000000000000
 C   -7.644027890417    1.247954738504    0.000000000000
 H   -8.173957890417    2.207414738504    0.000000000000
 C   -7.661637890417   -1.170545261496    0.000000000000
 H   -8.205477890417   -2.122205261496    0.000000000000
 C   -6.239627890417    1.240324738504    0.000000000000
 H   -5.682697890417    2.183454738504    0.000000000000
 C   -6.257267890417   -1.183355261496    0.000000000000
 H   -5.714117890417   -2.134475261496    0.000000000000
 C   -5.482307890417    0.022864738504    0.000000000000
 O   -4.177437890417    0.013024738504    0.000000000000
NA   -2.102887890417    0.006554738504    0.000000000000
 O    4.697079039408   -0.014652649140    0.000000000000
 C    6.001951996190   -0.024484981362    0.000000000000
 C    6.759280360354   -1.241944431583    0.000000000000
 H    6.202355131341   -2.185074578163    0.000000000000
 C    8.163679648563   -1.249571729906    0.000000000000
 H    8.693611659839   -2.209031697713    0.000000000000
 C    8.895845335080   -0.045562955027    0.000000000000
 H    9.989416652653   -0.053483395864    0.000000000000
 C    8.181287033703    1.168931765436    0.000000000000
 H    8.725125695352    2.120589686223    0.000000000000
 C    6.776915402294    1.181735897292    0.000000000000
 H    6.233761326484    2.132852045999    0.000000000000
