25

 C   -8.420699251091    0.044083527062    0.000000000000
 H   -9.514269251091    0.052003527062    0.000000000000
 C   -7.688529251091    1.248093527062    0.000000000000
 H   -8.218459251091    2.207553527062    0.000000000000
 C   -7.706139251091   -1.170406472938    0.000000000000
 H   -8.249979251091   -2.122066472938    0.000000000000
 C   -6.284129251091    1.240463527062    0.000000000000
 H   -5.727199251091    2.183593527062    0.000000000000
 C   -6.301769251091   -1.183216472938    0.000000000000
 H   -5.758619251091   -2.134336472938    0.000000000000
 C   -5.526809251091    0.023003527062    0.000000000000
 O   -4.221939251091    0.013163527062    0.000000000000
NA   -2.147389251091    0.006693527062    0.000000000000
 O    4.752577192407   -0.014825733929    0.000000000000
 C    6.057450149190   -0.024658066151    0.000000000000
 C    6.814778513354   -1.242117516372    0.000000000000
 H    6.257853284341   -2.185247662953    0.000000000000
 C    8.219177801562   -1.249744814696    0.000000000000
 H    8.749109812839   -2.209204782503    0.000000000000
 C    8.951343488080   -0.045736039816    0.000000000000
 H   10.044914805652   -0.053656480654    0.000000000000
 C    8.236785186702    1.168758680647    0.000000000000
 H    8.780623848351    2.120416601433    0.000000000000
 C    6.832413555293    1.181562812502    0.000000000000
 H    6.289259479483    2.132678961209    0.000000000000
