25

 C   -8.509701972440    0.044361104179    0.000000000000
 H   -9.603271972440    0.052281104179    0.000000000000
 C   -7.777531972440    1.248371104179    0.000000000000
 H   -8.307461972440    2.207831104179    0.000000000000
 C   -7.795141972440   -1.170128895821    0.000000000000
 H   -8.338981972440   -2.121788895821    0.000000000000
 C   -6.373131972440    1.240741104179    0.000000000000
 H   -5.816201972440    2.183871104179    0.000000000000
 C   -6.390771972440   -1.182938895821    0.000000000000
 H   -5.847621972440   -2.134058895821    0.000000000000
 C   -5.615811972440    0.023281104179    0.000000000000
 O   -4.310941972440    0.013441104179    0.000000000000
NA   -2.236391972440    0.006971104179    0.000000000000
 O    4.863573498406   -0.015171903508    0.000000000000
 C    6.168446455189   -0.025004235730    0.000000000000
 C    6.925774819353   -1.242463685951    0.000000000000
 H    6.368849590340   -2.185593832532    0.000000000000
 C    8.330174107561   -1.250090984274    0.000000000000
 H    8.860106118838   -2.209550952081    0.000000000000
 C    9.062339794079   -0.046082209395    0.000000000000
 H   10.155911111651   -0.054002650232    0.000000000000
 C    8.347781492702    1.168412511068    0.000000000000
 H    8.891620154350    2.120070431855    0.000000000000
 C    6.943409861292    1.181216642923    0.000000000000
 H    6.400255785482    2.132332791630    0.000000000000
