25

 C   -8.598704693789    0.044638681295    0.000000000000
 H   -9.692274693789    0.052558681295    0.000000000000
 C   -7.866534693789    1.248648681295    0.000000000000
 H   -8.396464693789    2.208108681295    0.000000000000
 C   -7.884144693789   -1.169851318705    0.000000000000
 H   -8.427984693789   -2.121511318705    0.000000000000
 C   -6.462134693789    1.241018681295    0.000000000000
 H   -5.905204693789    2.184148681295    0.000000000000
 C   -6.479774693789   -1.182661318705    0.000000000000
 H   -5.936624693789   -2.133781318705    0.000000000000
 C   -5.704814693789    0.023558681295    0.000000000000
 O   -4.399944693789    0.013718681295    0.000000000000
NA   -2.325394693789    0.007248681295    0.000000000000
 O    4.974569804405   -0.015518073087    0.000000000000
 C    6.279442761188   -0.025350405309    0.000000000000
 C    7.036771125352   -1.242809855530    0.000000000000
 H    6.479845896339   -2.185940002110    0.000000000000
 C    8.441170413560   -1.250437153853    0.000000000000
 H    8.971102424837   -2.209897121660    0.000000000000
 C    9.173336100078   -0.046428378974    0.000000000000
 H   10.266907417650   -0.054348819811    0.000000000000
 C    8.458777798701    1.168066341489    0.000000000000
 H    9.002616460349    2.119724262276    0.000000000000
 C    7.054406167291    1.180870473345    0.000000000000
 H    6.511252091481    2.131986622051    0.000000000000
