25

 C   -8.732208775812    0.045055046970    0.000000000000
 H   -9.825778775812    0.052975046970    0.000000000000
 C   -8.000038775812    1.249065046970    0.000000000000
 H   -8.529968775812    2.208525046970    0.000000000000
 C   -8.017648775812   -1.169434953030    0.000000000000
 H   -8.561488775812   -2.121094953030    0.000000000000
 C   -6.595638775812    1.241435046970    0.000000000000
 H   -6.038708775812    2.184565046970    0.000000000000
 C   -6.613278775812   -1.182244953030    0.000000000000
 H   -6.070128775812   -2.133364953030    0.000000000000
 C   -5.838318775812    0.023975046970    0.000000000000
 O   -4.533448775812    0.014135046970    0.000000000000
NA   -2.458898775812    0.007665046970    0.000000000000
 O    5.141064263404   -0.016037327455    0.000000000000
 C    6.445937220187   -0.025869659677    0.000000000000
 C    7.203265584350   -1.243329109898    0.000000000000
 H    6.646340355337   -2.186459256479    0.000000000000
 C    8.607664872559   -1.250956408222    0.000000000000
 H    9.137596883835   -2.210416376029    0.000000000000
 C    9.339830559076   -0.046947633342    0.000000000000
 H   10.433401876649   -0.054868074180    0.000000000000
 C    8.625272257699    1.167547087121    0.000000000000
 H    9.169110919348    2.119205007907    0.000000000000
 C    7.220900626290    1.180351218976    0.000000000000
 H    6.677746550480    2.131467367683    0.000000000000
