25

 C   -8.776710136486    0.045193835528    0.000000000000
 H   -9.870280136486    0.053113835528    0.000000000000
 C   -8.044540136486    1.249203835528    0.000000000000
 H   -8.574470136486    2.208663835528    0.000000000000
 C   -8.062150136486   -1.169296164472    0.000000000000
 H   -8.605990136486   -2.120956164472    0.000000000000
 C   -6.640140136486    1.241573835528    0.000000000000
 H   -6.083210136486    2.184703835528    0.000000000000
 C   -6.657780136486   -1.182106164472    0.000000000000
 H   -6.114630136486   -2.133226164472    0.000000000000
 C   -5.882820136486    0.024113835528    0.000000000000
 O   -4.577950136486    0.014273835528    0.000000000000
NA   -2.503400136486    0.007803835528    0.000000000000
 O    5.196562416403   -0.016210412245    0.000000000000
 C    6.501435373186   -0.026042744466    0.000000000000
 C    7.258763737350   -1.243502194688    0.000000000000
 H    6.701838508337   -2.186632341268    0.000000000000
 C    8.663163025558   -1.251129493011    0.000000000000
 H    9.193095036835   -2.210589460818    0.000000000000
 C    9.395328712076   -0.047120718132    0.000000000000
 H   10.488900029648   -0.055041158969    0.000000000000
 C    8.680770410699    1.167374002331    0.000000000000
 H    9.224609072347    2.119031923118    0.000000000000
 C    7.276398779289    1.180178134187    0.000000000000
 H    6.733244703479    2.131294282894    0.000000000000
