25

 C   -8.865712857835    0.045471412645    0.000000000000
 H   -9.959282857835    0.053391412645    0.000000000000
 C   -8.133542857835    1.249481412645    0.000000000000
 H   -8.663472857835    2.208941412645    0.000000000000
 C   -8.151152857835   -1.169018587355    0.000000000000
 H   -8.694992857835   -2.120678587355    0.000000000000
 C   -6.729142857835    1.241851412645    0.000000000000
 H   -6.172212857835    2.184981412645    0.000000000000
 C   -6.746782857835   -1.181828587355    0.000000000000
 H   -6.203632857835   -2.132948587355    0.000000000000
 C   -5.971822857835    0.024391412645    0.000000000000
 O   -4.666952857835    0.014551412645    0.000000000000
NA   -2.592402857835    0.008081412645    0.000000000000
 O    5.307558722402   -0.016556581824    0.000000000000
 C    6.612431679185   -0.026388914045    0.000000000000
 C    7.369760043349   -1.243848364267    0.000000000000
 H    6.812834814336   -2.186978510847    0.000000000000
 C    8.774159331557   -1.251475662590    0.000000000000
 H    9.304091342834   -2.210935630397    0.000000000000
 C    9.506325018075   -0.047466887711    0.000000000000
 H   10.599896335647   -0.055387328548    0.000000000000
 C    8.791766716698    1.167027832752    0.000000000000
 H    9.335605378347    2.118685753539    0.000000000000
 C    7.387395085288    1.179831964608    0.000000000000
 H    6.844241009478    2.130948113315    0.000000000000
