25

 C   -8.910214218510    0.045610201203    0.000000000000
 H  -10.003784218510    0.053530201203    0.000000000000
 C   -8.178044218510    1.249620201203    0.000000000000
 H   -8.707974218510    2.209080201203    0.000000000000
 C   -8.195654218510   -1.168879798797    0.000000000000
 H   -8.739494218510   -2.120539798797    0.000000000000
 C   -6.773644218510    1.241990201203    0.000000000000
 H   -6.216714218510    2.185120201203    0.000000000000
 C   -6.791284218510   -1.181689798797    0.000000000000
 H   -6.248134218510   -2.132809798797    0.000000000000
 C   -6.016324218510    0.024530201203    0.000000000000
 O   -4.711454218510    0.014690201203    0.000000000000
NA   -2.636904218510    0.008220201203    0.000000000000
 O    5.363056875402   -0.016729666613    0.000000000000
 C    6.667929832185   -0.026561998835    0.000000000000
 C    7.425258196348   -1.244021449056    0.000000000000
 H    6.868332967335   -2.187151595636    0.000000000000
 C    8.829657484557   -1.251648747379    0.000000000000
 H    9.359589495834   -2.211108715186    0.000000000000
 C    9.561823171075   -0.047639972500    0.000000000000
 H   10.655394488647   -0.055560413337    0.000000000000
 C    8.847264869697    1.166854747963    0.000000000000
 H    9.391103531346    2.118512668750    0.000000000000
 C    7.442893238288    1.179658879819    0.000000000000
 H    6.899739162478    2.130775028525    0.000000000000
