25

 C   -8.954715579184    0.045748989761    0.000000000000
 H  -10.048285579184    0.053668989761    0.000000000000
 C   -8.222545579184    1.249758989761    0.000000000000
 H   -8.752475579184    2.209218989761    0.000000000000
 C   -8.240155579184   -1.168741010239    0.000000000000
 H   -8.783995579184   -2.120401010239    0.000000000000
 C   -6.818145579184    1.242128989761    0.000000000000
 H   -6.261215579184    2.185258989761    0.000000000000
 C   -6.835785579184   -1.181551010239    0.000000000000
 H   -6.292635579184   -2.132671010239    0.000000000000
 C   -6.060825579184    0.024668989761    0.000000000000
 O   -4.755955579184    0.014828989761    0.000000000000
NA   -2.681405579184    0.008358989761    0.000000000000
 O    5.418555028401   -0.016902751402    0.000000000000
 C    6.723427985184   -0.026735083624    0.000000000000
 C    7.480756349348   -1.244194533845    0.000000000000
 H    6.923831120335   -2.187324680426    0.000000000000
 C    8.885155637556   -1.251821832169    0.000000000000
 H    9.415087648833   -2.211281799976    0.000000000000
 C    9.617321324074   -0.047813057290    0.000000000000
 H   10.710892641646   -0.055733498127    0.000000000000
 C    8.902763022697    1.166681663174    0.000000000000
 H    9.446601684346    2.118339583960    0.000000000000
 C    7.498391391287    1.179485795029    0.000000000000
 H    6.955237315478    2.130601943736    0.000000000000
