25

 C   -9.043718300533    0.046026566878    0.000000000000
 H  -10.137288300533    0.053946566878    0.000000000000
 C   -8.311548300533    1.250036566878    0.000000000000
 H   -8.841478300533    2.209496566878    0.000000000000
 C   -8.329158300533   -1.168463433122    0.000000000000
 H   -8.872998300533   -2.120123433122    0.000000000000
 C   -6.907148300533    1.242406566878    0.000000000000
 H   -6.350218300533    2.185536566878    0.000000000000
 C   -6.924788300533   -1.181273433122    0.000000000000
 H   -6.381638300533   -2.132393433122    0.000000000000
 C   -6.149828300533    0.024946566878    0.000000000000
 O   -4.844958300533    0.015106566878    0.000000000000
NA   -2.770408300533    0.008636566878    0.000000000000
 O    5.529551334400   -0.017248920981    0.000000000000
 C    6.834424291183   -0.027081253203    0.000000000000
 C    7.591752655347   -1.244540703424    0.000000000000
 H    7.034827426334   -2.187670850005    0.000000000000
 C    8.996151943555   -1.252168001748    0.000000000000
 H    9.526083954832   -2.211627969555    0.000000000000
 C    9.728317630073   -0.048159226868    0.000000000000
 H   10.821888947645   -0.056079667706    0.000000000000
 C    9.013759328696    1.166335493595    0.000000000000
 H    9.557597990345    2.117993414381    0.000000000000
 C    7.609387697286    1.179139625450    0.000000000000
 H    7.066233621477    2.130255774157    0.000000000000
