25

 C   -9.177222382556    0.046442932553    0.000000000000
 H  -10.270792382556    0.054362932553    0.000000000000
 C   -8.445052382556    1.250452932553    0.000000000000
 H   -8.974982382556    2.209912932553    0.000000000000
 C   -8.462662382556   -1.168047067447    0.000000000000
 H   -9.006502382556   -2.119707067447    0.000000000000
 C   -7.040652382556    1.242822932553    0.000000000000
 H   -6.483722382556    2.185952932553    0.000000000000
 C   -7.058292382556   -1.180857067447    0.000000000000
 H   -6.515142382556   -2.131977067447    0.000000000000
 C   -6.283332382556    0.025362932553    0.000000000000
 O   -4.978462382556    0.015522932553    0.000000000000
NA   -2.903912382556    0.009052932553    0.000000000000
 O    5.696045793399   -0.017768175350    0.000000000000
 C    7.000918750182   -0.027600507571    0.000000000000
 C    7.758247114346   -1.245059957793    0.000000000000
 H    7.201321885333   -2.188190104373    0.000000000000
 C    9.162646402554   -1.252687256116    0.000000000000
 H    9.692578413831   -2.212147223923    0.000000000000
 C    9.894812089072   -0.048678481237    0.000000000000
 H   10.988383406644   -0.056598922074    0.000000000000
 C    9.180253787694    1.165816239226    0.000000000000
 H    9.724092449343    2.117474160013    0.000000000000
 C    7.775882156285    1.178620371082    0.000000000000
 H    7.232728080475    2.129736519789    0.000000000000
