25

 C   -9.266225103904    0.046720509669    0.000000000000
 H  -10.359795103904    0.054640509669    0.000000000000
 C   -8.534055103904    1.250730509669    0.000000000000
 H   -9.063985103904    2.210190509669    0.000000000000
 C   -8.551665103904   -1.167769490331    0.000000000000
 H   -9.095505103904   -2.119429490331    0.000000000000
 C   -7.129655103904    1.243100509669    0.000000000000
 H   -6.572725103904    2.186230509669    0.000000000000
 C   -7.147295103904   -1.180579490331    0.000000000000
 H   -6.604145103904   -2.131699490331    0.000000000000
 C   -6.372335103904    0.025640509669    0.000000000000
 O   -5.067465103904    0.015800509669    0.000000000000
NA   -2.992915103904    0.009330509669    0.000000000000
 O    5.807042099398   -0.018114344928    0.000000000000
 C    7.111915056181   -0.027946677150    0.000000000000
 C    7.869243420345   -1.245406127371    0.000000000000
 H    7.312318191332   -2.188536273952    0.000000000000
 C    9.273642708553   -1.253033425695    0.000000000000
 H    9.803574719830   -2.212493393502    0.000000000000
 C   10.005808395071   -0.049024650816    0.000000000000
 H   11.099379712643   -0.056945091653    0.000000000000
 C    9.291250093693    1.165470069648    0.000000000000
 H    9.835088755342    2.117127990434    0.000000000000
 C    7.886878462284    1.178274201503    0.000000000000
 H    7.343724386474    2.129390350210    0.000000000000
