25

 C   -9.310726464579    0.046859298227    0.000000000000
 H  -10.404296464579    0.054779298227    0.000000000000
 C   -8.578556464579    1.250869298227    0.000000000000
 H   -9.108486464579    2.210329298227    0.000000000000
 C   -8.596166464579   -1.167630701773    0.000000000000
 H   -9.140006464579   -2.119290701773    0.000000000000
 C   -7.174156464579    1.243239298227    0.000000000000
 H   -6.617226464579    2.186369298227    0.000000000000
 C   -7.191796464579   -1.180440701773    0.000000000000
 H   -6.648646464579   -2.131560701773    0.000000000000
 C   -6.416836464579    0.025779298227    0.000000000000
 O   -5.111966464579    0.015939298227    0.000000000000
NA   -3.037416464579    0.009469298227    0.000000000000
 O    5.862540252398   -0.018287429718    0.000000000000
 C    7.167413209180   -0.028119761940    0.000000000000
 C    7.924741573344   -1.245579212161    0.000000000000
 H    7.367816344331   -2.188709358741    0.000000000000
 C    9.329140861553   -1.253206510484    0.000000000000
 H    9.859072872829   -2.212666478291    0.000000000000
 C   10.061306548070   -0.049197735605    0.000000000000
 H   11.154877865643   -0.057118176442    0.000000000000
 C    9.346748246693    1.165296984858    0.000000000000
 H    9.890586908342    2.116954905645    0.000000000000
 C    7.942376615284    1.178101116714    0.000000000000
 H    7.399222539474    2.129217265421    0.000000000000
