25

 C   -9.355227825253    0.046998086786    0.000000000000
 H  -10.448797825253    0.054918086786    0.000000000000
 C   -8.623057825253    1.251008086786    0.000000000000
 H   -9.152987825253    2.210468086786    0.000000000000
 C   -8.640667825253   -1.167491913214    0.000000000000
 H   -9.184507825253   -2.119151913214    0.000000000000
 C   -7.218657825253    1.243378086786    0.000000000000
 H   -6.661727825253    2.186508086786    0.000000000000
 C   -7.236297825253   -1.180301913214    0.000000000000
 H   -6.693147825253   -2.131421913214    0.000000000000
 C   -6.461337825253    0.025918086786    0.000000000000
 O   -5.156467825253    0.016078086786    0.000000000000
NA   -3.081917825253    0.009608086786    0.000000000000
 O    5.918038405397   -0.018460514507    0.000000000000
 C    7.222911362180   -0.028292846729    0.000000000000
 C    7.980239726344   -1.245752296950    0.000000000000
 H    7.423314497331   -2.188882443531    0.000000000000
 C    9.384639014552   -1.253379595274    0.000000000000
 H    9.914571025829   -2.212839563081    0.000000000000
 C   10.116804701070   -0.049370820394    0.000000000000
 H   11.210376018642   -0.057291261232    0.000000000000
 C    9.402246399692    1.165123900069    0.000000000000
 H    9.946085061341    2.116781820855    0.000000000000
 C    7.997874768283    1.177928031924    0.000000000000
 H    7.454720692473    2.129044180631    0.000000000000
