25

 C   -9.399729185928    0.047136875344    0.000000000000
 H  -10.493299185928    0.055056875344    0.000000000000
 C   -8.667559185928    1.251146875344    0.000000000000
 H   -9.197489185928    2.210606875344    0.000000000000
 C   -8.685169185928   -1.167353124656    0.000000000000
 H   -9.229009185928   -2.119013124656    0.000000000000
 C   -7.263159185928    1.243516875344    0.000000000000
 H   -6.706229185928    2.186646875344    0.000000000000
 C   -7.280799185928   -1.180163124656    0.000000000000
 H   -6.737649185928   -2.131283124656    0.000000000000
 C   -6.505839185928    0.026056875344    0.000000000000
 O   -5.200969185928    0.016216875344    0.000000000000
NA   -3.126419185928    0.009746875344    0.000000000000
 O    5.973536558397   -0.018633599297    0.000000000000
 C    7.278409515179   -0.028465931518    0.000000000000
 C    8.035737879343   -1.245925381740    0.000000000000
 H    7.478812650330   -2.189055528320    0.000000000000
 C    9.440137167552   -1.253552680063    0.000000000000
 H    9.970069178828   -2.213012647870    0.000000000000
 C   10.172302854069   -0.049543905184    0.000000000000
 H   11.265874171642   -0.057464346021    0.000000000000
 C    9.457744552692    1.164950815279    0.000000000000
 H   10.001583214341    2.116608736066    0.000000000000
 C    8.053372921283    1.177754947135    0.000000000000
 H    7.510218845473    2.128871095842    0.000000000000
