25

 C   -9.577734628625    0.047692029577    0.000000000000
 H  -10.671304628625    0.055612029577    0.000000000000
 C   -8.845564628625    1.251702029577    0.000000000000
 H   -9.375494628625    2.211162029577    0.000000000000
 C   -8.863174628625   -1.166797970423    0.000000000000
 H   -9.407014628625   -2.118457970423    0.000000000000
 C   -7.441164628625    1.244072029577    0.000000000000
 H   -6.884234628625    2.187202029577    0.000000000000
 C   -7.458804628625   -1.179607970423    0.000000000000
 H   -6.915654628625   -2.130727970423    0.000000000000
 C   -6.683844628625    0.026612029577    0.000000000000
 O   -5.378974628625    0.016772029577    0.000000000000
NA   -3.304424628625    0.010302029577    0.000000000000
 O    6.195529170395   -0.019325938454    0.000000000000
 C    7.500402127178   -0.029158270676    0.000000000000
 C    8.257730491341   -1.246617720897    0.000000000000
 H    7.700805262328   -2.189747867478    0.000000000000
 C    9.662129779550   -1.254245019221    0.000000000000
 H   10.192061790826   -2.213704987028    0.000000000000
 C   10.394295466067   -0.050236244342    0.000000000000
 H   11.487866783640   -0.058156685179    0.000000000000
 C    9.679737164690    1.164258476122    0.000000000000
 H   10.223575826339    2.115916396908    0.000000000000
 C    8.275365533281    1.177062607977    0.000000000000
 H    7.732211457471    2.128178756684    0.000000000000
