25

 C   -9.622235989299    0.047830818135    0.000000000000
 H  -10.715805989299    0.055750818135    0.000000000000
 C   -8.890065989299    1.251840818135    0.000000000000
 H   -9.419995989299    2.211300818135    0.000000000000
 C   -8.907675989299   -1.166659181865    0.000000000000
 H   -9.451515989299   -2.118319181865    0.000000000000
 C   -7.485665989299    1.244210818135    0.000000000000
 H   -6.928735989299    2.187340818135    0.000000000000
 C   -7.503305989299   -1.179469181865    0.000000000000
 H   -6.960155989299   -2.130589181865    0.000000000000
 C   -6.728345989299    0.026750818135    0.000000000000
 O   -5.423475989299    0.016910818135    0.000000000000
NA   -3.348925989299    0.010440818135    0.000000000000
 O    6.251027323394   -0.019499023244    0.000000000000
 C    7.555900280177   -0.029331355466    0.000000000000
 C    8.313228644341   -1.246790805687    0.000000000000
 H    7.756303415328   -2.189920952267    0.000000000000
 C    9.717627932549   -1.254418104010    0.000000000000
 H   10.247559943826   -2.213878071817    0.000000000000
 C   10.449793619067   -0.050409329131    0.000000000000
 H   11.543364936639   -0.058329769968    0.000000000000
 C    9.735235317690    1.164085391332    0.000000000000
 H   10.279073979338    2.115743312119    0.000000000000
 C    8.330863686280    1.176889523188    0.000000000000
 H    7.787709610470    2.128005671895    0.000000000000
