25

 C   -9.666737349974    0.047969606694    0.000000000000
 H  -10.760307349974    0.055889606694    0.000000000000
 C   -8.934567349974    1.251979606694    0.000000000000
 H   -9.464497349974    2.211439606694    0.000000000000
 C   -8.952177349974   -1.166520393306    0.000000000000
 H   -9.496017349974   -2.118180393306    0.000000000000
 C   -7.530167349974    1.244349606694    0.000000000000
 H   -6.973237349974    2.187479606694    0.000000000000
 C   -7.547807349974   -1.179330393306    0.000000000000
 H   -7.004657349974   -2.130450393306    0.000000000000
 C   -6.772847349974    0.026889606694    0.000000000000
 O   -5.467977349974    0.017049606694    0.000000000000
NA   -3.393427349974    0.010579606694    0.000000000000
 O    6.306525476394   -0.019672108033    0.000000000000
 C    7.611398433177   -0.029504440255    0.000000000000
 C    8.368726797340   -1.246963890476    0.000000000000
 H    7.811801568327   -2.190094037057    0.000000000000
 C    9.773126085549   -1.254591188800    0.000000000000
 H   10.303058096825   -2.214051156607    0.000000000000
 C   10.505291772066   -0.050582413920    0.000000000000
 H   11.598863089639   -0.058502854758    0.000000000000
 C    9.790733470689    1.163912306543    0.000000000000
 H   10.334572132338    2.115570227329    0.000000000000
 C    8.386361839280    1.176716438398    0.000000000000
 H    7.843207763470    2.127832587105    0.000000000000
