25

 C   -9.711238710648    0.048108395252    0.000000000000
 H  -10.804808710648    0.056028395252    0.000000000000
 C   -8.979068710648    1.252118395252    0.000000000000
 H   -9.508998710648    2.211578395252    0.000000000000
 C   -8.996678710648   -1.166381604748    0.000000000000
 H   -9.540518710648   -2.118041604748    0.000000000000
 C   -7.574668710648    1.244488395252    0.000000000000
 H   -7.017738710648    2.187618395252    0.000000000000
 C   -7.592308710648   -1.179191604748    0.000000000000
 H   -7.049158710648   -2.130311604748    0.000000000000
 C   -6.817348710648    0.027028395252    0.000000000000
 O   -5.512478710648    0.017188395252    0.000000000000
NA   -3.437928710648    0.010718395252    0.000000000000
 O    6.362023629393   -0.019845192823    0.000000000000
 C    7.666896586176   -0.029677525044    0.000000000000
 C    8.424224950340   -1.247136975266    0.000000000000
 H    7.867299721327   -2.190267121846    0.000000000000
 C    9.828624238548   -1.254764273589    0.000000000000
 H   10.358556249825   -2.214224241396    0.000000000000
 C   10.560789925066   -0.050755498710    0.000000000000
 H   11.654361242638   -0.058675939547    0.000000000000
 C    9.846231623689    1.163739221753    0.000000000000
 H   10.390070285337    2.115397142540    0.000000000000
 C    8.441859992279    1.176543353609    0.000000000000
 H    7.898705916469    2.127659502316    0.000000000000
