14

 P   -0.259246513141    0.241636323335   -0.131890077220
 O   -0.846246513141    1.291636323335    0.823109922780
 O   -0.525246513141    0.289636323335   -1.643890077220
 O    1.403753486859    0.067636323335    0.155109922780
 O   -0.574246513141   -1.316363676665    0.460109922780
 C    2.140753486859    1.232636323335   -0.221890077220
 H    1.809753486859    2.115636323335    0.354109922780
 H    2.025753486859    1.443636323335   -1.299890077220
 H    3.200753486859    1.030636323335   -0.001890077220
 C   -1.965246513141   -1.639363676665    0.410109922780
 H   -2.343246513141   -1.612363676665   -0.627890077220
 H   -2.558246513141   -0.940363676665    1.026109922780
 H   -2.075246513141   -2.659363676665    0.810109922780
LI    2.071377274128   -1.039857051744    0.691521055057
