14

 P   -0.264315203421    0.250044563144   -0.135962583239
 O   -0.851315203421    1.300044563144    0.819037416761
 O   -0.530315203421    0.298044563144   -1.647962583239
 O    1.398684796579    0.076044563144    0.151037416761
 O   -0.579315203421   -1.307955436856    0.456037416761
 C    2.135684796579    1.241044563144   -0.225962583239
 H    1.804684796579    2.124044563144    0.350037416761
 H    2.020684796579    1.452044563144   -1.303962583239
 H    3.195684796579    1.039044563144   -0.005962583239
 C   -1.970315203421   -1.630955436856    0.406037416761
 H   -2.348315203421   -1.603955436856   -0.631962583239
 H   -2.563315203421   -0.931955436856    1.022037416761
 H   -2.080315203421   -2.650955436856    0.806037416761
LI    2.161683410600   -1.189662151232    0.764078710791
