14

 P   -0.269383893701    0.258452802953   -0.140035089259
 O   -0.856383893701    1.308452802953    0.814964910741
 O   -0.535383893701    0.306452802953   -1.652035089259
 O    1.393616106299    0.084452802953    0.146964910741
 O   -0.584383893701   -1.299547197047    0.451964910741
 C    2.130616106299    1.249452802953   -0.230035089259
 H    1.799616106299    2.132452802953    0.345964910741
 H    2.015616106299    1.460452802953   -1.308035089259
 H    3.190616106299    1.047452802953   -0.010035089259
 C   -1.975383893701   -1.622547197047    0.401964910741
 H   -2.353383893701   -1.595547197047   -0.636035089259
 H   -2.568383893701   -0.923547197047    1.017964910741
 H   -2.085383893701   -2.642547197047    0.801964910741
LI    2.251989547073   -1.339467250720    0.836636366525
