14

 P   -0.271918238841    0.262656922858   -0.142071342268
 O   -0.858918238841    1.312656922858    0.812928657732
 O   -0.537918238841    0.310656922858   -1.654071342268
 O    1.391081761159    0.088656922858    0.144928657732
 O   -0.586918238841   -1.295343077142    0.449928657732
 C    2.128081761159    1.253656922858   -0.232071342268
 H    1.797081761159    2.136656922858    0.343928657732
 H    2.013081761159    1.464656922858   -1.310071342268
 H    3.188081761159    1.051656922858   -0.012071342268
 C   -1.977918238841   -1.618343077142    0.399928657732
 H   -2.355918238841   -1.591343077142   -0.638071342268
 H   -2.570918238841   -0.919343077142    1.015928657732
 H   -2.087918238841   -2.638343077142    0.799928657732
LI    2.297142615309   -1.414369800464    0.872915194392
