14

 P   -0.477200195189    0.603190635128   -0.307007836055
 O   -1.064200195189    1.653190635128    0.647992163945
 O   -0.743200195189    0.651190635128   -1.819007836055
 O    1.185799804811    0.429190635128   -0.020007836055
 O   -0.792200195189   -0.954809364872    0.284992163945
 C    1.922799804811    1.594190635128   -0.397007836055
 H    1.591799804811    2.477190635128    0.178992163945
 H    1.807799804811    1.805190635128   -1.475007836055
 H    2.982799804811    1.392190635128   -0.177007836055
 C   -2.183200195189   -1.277809364872    0.234992163945
 H   -2.561200195189   -1.250809364872   -0.803007836055
 H   -2.776200195189   -0.578809364872    0.850992163945
 H   -2.293200195189   -2.297809364872    0.634992163945
LI    5.954541142443   -7.481476329720    3.811500251633
