14

 P   -0.276986929121    0.271065162667   -0.146143848288
 O   -0.863986929121    1.321065162667    0.808856151712
 O   -0.542986929121    0.319065162667   -1.658143848288
 O    1.386013070879    0.097065162667    0.140856151712
 O   -0.591986929121   -1.286934837333    0.445856151712
 C    2.123013070879    1.262065162667   -0.236143848288
 H    1.792013070879    2.145065162667    0.339856151712
 H    2.008013070879    1.473065162667   -1.314143848288
 H    3.183013070879    1.060065162667   -0.016143848288
 C   -1.982986929121   -1.609934837333    0.395856151712
 H   -2.360986929121   -1.582934837333   -0.642143848288
 H   -2.575986929121   -0.910934837333    1.011856151712
 H   -2.092986929121   -2.629934837333    0.795856151712
LI    2.387448751781   -1.564174899951    0.945472850127
