14

 P   -0.279521274262    0.275269282571   -0.148180101297
 O   -0.866521274262    1.325269282571    0.806819898703
 O   -0.545521274262    0.323269282571   -1.660180101297
 O    1.383478725738    0.101269282571    0.138819898703
 O   -0.594521274262   -1.282730717429    0.443819898703
 C    2.120478725738    1.266269282571   -0.238180101297
 H    1.789478725738    2.149269282571    0.337819898703
 H    2.005478725738    1.477269282571   -1.316180101297
 H    3.180478725738    1.064269282571   -0.018180101297
 C   -1.985521274262   -1.605730717429    0.393819898703
 H   -2.363521274262   -1.578730717429   -0.644180101297
 H   -2.578521274262   -0.906730717429    1.009819898703
 H   -2.095521274262   -2.625730717429    0.793819898703
LI    2.432601820018   -1.639077449695    0.981751677994
