14

 P   -0.282055619402    0.279473402476   -0.150216354307
 O   -0.869055619402    1.329473402476    0.804783645693
 O   -0.548055619402    0.327473402476   -1.662216354307
 O    1.380944380598    0.105473402476    0.136783645693
 O   -0.597055619402   -1.278526597524    0.441783645693
 C    2.117944380598    1.270473402476   -0.240216354307
 H    1.786944380598    2.153473402476    0.335783645693
 H    2.002944380598    1.481473402476   -1.318216354307
 H    3.177944380598    1.068473402476   -0.020216354307
 C   -1.988055619402   -1.601526597524    0.391783645693
 H   -2.366055619402   -1.574526597524   -0.646216354307
 H   -2.581055619402   -0.902526597524    1.007783645693
 H   -2.098055619402   -2.621526597524    0.791783645693
LI    2.477754888254   -1.713979999439    1.018030505861
