14

 P   -0.284589964542    0.283677522380   -0.152252607317
 O   -0.871589964542    1.333677522380    0.802747392683
 O   -0.550589964542    0.331677522380   -1.664252607317
 O    1.378410035458    0.109677522380    0.134747392683
 O   -0.599589964542   -1.274322477620    0.439747392683
 C    2.115410035458    1.274677522380   -0.242252607317
 H    1.784410035458    2.157677522380    0.333747392683
 H    2.000410035458    1.485677522380   -1.320252607317
 H    3.175410035458    1.072677522380   -0.022252607317
 C   -1.990589964542   -1.597322477620    0.389747392683
 H   -2.368589964542   -1.570322477620   -0.648252607317
 H   -2.583589964542   -0.898322477620    1.005747392683
 H   -2.100589964542   -2.617322477620    0.789747392683
LI    2.522907956490   -1.788882549183    1.054309333728
