14

 P   -0.297261690242    0.304698121903   -0.162433872365
 O   -0.884261690242    1.354698121903    0.792566127635
 O   -0.563261690242    0.352698121903   -1.674433872365
 O    1.365738309758    0.130698121903    0.124566127635
 O   -0.612261690242   -1.253301878097    0.429566127635
 C    2.102738309758    1.295698121903   -0.252433872365
 H    1.771738309758    2.178698121903    0.323566127635
 H    1.987738309758    1.506698121903   -1.330433872365
 H    3.162738309758    1.093698121903   -0.032433872365
 C   -2.003261690242   -1.576301878097    0.379566127635
 H   -2.381261690242   -1.549301878097   -0.658433872365
 H   -2.596261690242   -0.877301878097    0.995566127635
 H   -2.113261690242   -2.596301878097    0.779566127635
LI    2.748673297671   -2.163395297903    1.235703473064
