14

 P   -0.307399070803    0.321514601522   -0.170578884404
 O   -0.894399070803    1.371514601522    0.784421115596
 O   -0.573399070803    0.369514601522   -1.682578884404
 O    1.355600929197    0.147514601522    0.116421115596
 O   -0.622399070803   -1.236485398478    0.421421115596
 C    2.092600929197    1.312514601522   -0.260578884404
 H    1.761600929197    2.195514601522    0.315421115596
 H    1.977600929197    1.523514601522   -1.338578884404
 H    3.152600929197    1.110514601522   -0.040578884404
 C   -2.013399070803   -1.559485398478    0.371421115596
 H   -2.391399070803   -1.532485398478   -0.666578884404
 H   -2.606399070803   -0.860485398478    0.987421115596
 H   -2.123399070803   -2.579485398478    0.771421115596
LI    2.929285570616   -2.463005496878    1.380818784533
