14

 P   -0.325139486783    0.350943440854   -0.184832655472
 O   -0.912139486783    1.400943440854    0.770167344528
 O   -0.591139486783    0.398943440854   -1.696832655472
 O    1.337860513217    0.176943440854    0.102167344528
 O   -0.640139486783   -1.207056559146    0.407167344528
 C    2.074860513217    1.341943440854   -0.274832655472
 H    1.743860513217    2.224943440854    0.301167344528
 H    1.959860513217    1.552943440854   -1.352832655472
 H    3.134860513217    1.139943440854   -0.054832655472
 C   -2.031139486783   -1.530056559146    0.357167344528
 H   -2.409139486783   -1.503056559146   -0.680832655472
 H   -2.624139486783   -0.831056559146    0.973167344528
 H   -2.141139486783   -2.550056559146    0.757167344528
LI    3.245357048269   -2.987323345086    1.634770579603
