14

 P   -0.332742522204    0.363555800567   -0.190941414501
 O   -0.919742522204    1.413555800567    0.764058585499
 O   -0.598742522204    0.411555800567   -1.702941414501
 O    1.330257477796    0.189555800567    0.096058585499
 O   -0.647742522204   -1.194444199433    0.401058585499
 C    2.067257477796    1.354555800567   -0.280941414501
 H    1.736257477796    2.237555800567    0.295058585499
 H    1.952257477796    1.565555800567   -1.358941414501
 H    3.127257477796    1.152555800567   -0.060941414501
 C   -2.038742522204   -1.517444199433    0.351058585499
 H   -2.416742522204   -1.490444199433   -0.686941414501
 H   -2.631742522204   -0.818444199433    0.967058585499
 H   -2.148742522204   -2.537444199433    0.751058585499
LI    3.380816252978   -3.212030994317    1.743607063204
