14

 P   -0.335276867344    0.367759920472   -0.192977667511
 O   -0.922276867344    1.417759920472    0.762022332489
 O   -0.601276867344    0.415759920472   -1.704977667511
 O    1.327723132656    0.193759920472    0.094022332489
 O   -0.650276867344   -1.190240079528    0.399022332489
 C    2.064723132656    1.358759920472   -0.282977667511
 H    1.733723132656    2.241759920472    0.293022332489
 H    1.949723132656    1.569759920472   -1.360977667511
 H    3.124723132656    1.156759920472   -0.062977667511
 C   -2.041276867344   -1.513240079528    0.349022332489
 H   -2.419276867344   -1.486240079528   -0.688977667511
 H   -2.634276867344   -0.814240079528    0.965022332489
 H   -2.151276867344   -2.533240079528    0.749022332489
LI    3.425969321214   -3.286933544061    1.779885891072
