14

 P   -0.345414247904    0.384576400090   -0.201122679550
 O   -0.932414247904    1.434576400090    0.753877320450
 O   -0.611414247904    0.432576400090   -1.713122679550
 O    1.317585752096    0.210576400090    0.085877320450
 O   -0.660414247904   -1.173423599910    0.390877320450
 C    2.054585752096    1.375576400090   -0.291122679550
 H    1.723585752096    2.258576400090    0.284877320450
 H    1.939585752096    1.586576400090   -1.369122679550
 H    3.114585752096    1.173576400090   -0.071122679550
 C   -2.051414247904   -1.496423599910    0.340877320450
 H   -2.429414247904   -1.469423599910   -0.697122679550
 H   -2.644414247904   -0.797423599910    0.956877320450
 H   -2.161414247904   -2.516423599910    0.740877320450
LI    3.606581594159   -3.586543743037    1.925001202540
