14

 P   -0.347948593044    0.388780519995   -0.203158932560
 O   -0.934948593044    1.438780519995    0.751841067440
 O   -0.613948593044    0.436780519995   -1.715158932560
 O    1.315051406956    0.214780519995    0.083841067440
 O   -0.662948593044   -1.169219480005    0.388841067440
 C    2.052051406956    1.379780519995   -0.293158932560
 H    1.721051406956    2.262780519995    0.282841067440
 H    1.937051406956    1.590780519995   -1.371158932560
 H    3.112051406956    1.177780519995   -0.073158932560
 C   -2.053948593044   -1.492219480005    0.338841067440
 H   -2.431948593044   -1.465219480005   -0.699158932560
 H   -2.646948593044   -0.793219480005    0.954841067440
 H   -2.163948593044   -2.512219480005    0.738841067440
LI    3.651734662395   -3.661446292781    1.961280030407
