14

 P   -0.353017283324    0.397188759804   -0.207231438579
 O   -0.940017283324    1.447188759804    0.747768561421
 O   -0.619017283324    0.445188759804   -1.719231438579
 O    1.309982716676    0.223188759804    0.079768561421
 O   -0.668017283324   -1.160811240196    0.384768561421
 C    2.046982716676    1.388188759804   -0.297231438579
 H    1.715982716676    2.271188759804    0.278768561421
 H    1.931982716676    1.599188759804   -1.375231438579
 H    3.106982716676    1.186188759804   -0.077231438579
 C   -2.059017283324   -1.483811240196    0.334768561421
 H   -2.437017283324   -1.456811240196   -0.703231438579
 H   -2.652017283324   -0.784811240196    0.950768561421
 H   -2.169017283324   -2.503811240196    0.734768561421
LI    3.742040798868   -3.811251392269    2.033837686142
