14

 P   -0.355551628464    0.401392879709   -0.209267691589
 O   -0.942551628464    1.451392879709    0.745732308411
 O   -0.621551628464    0.449392879709   -1.721267691589
 O    1.307448371536    0.227392879709    0.077732308411
 O   -0.670551628464   -1.156607120291    0.382732308411
 C    2.044448371536    1.392392879709   -0.299267691589
 H    1.713448371536    2.275392879709    0.276732308411
 H    1.929448371536    1.603392879709   -1.377267691589
 H    3.104448371536    1.190392879709   -0.079267691589
 C   -2.061551628464   -1.479607120291    0.332732308411
 H   -2.439551628464   -1.452607120291   -0.705267691589
 H   -2.654551628464   -0.780607120291    0.948732308411
 H   -2.171551628464   -2.499607120291    0.732732308411
LI    3.787193867104   -3.886153942013    2.070116514009
