14

 P   -0.370757699305    0.426617599136   -0.221485209647
 O   -0.957757699305    1.476617599136    0.733514790353
 O   -0.636757699305    0.474617599136   -1.733485209647
 O    1.292242300695    0.252617599136    0.065514790353
 O   -0.685757699305   -1.131382400864    0.370514790353
 C    2.029242300695    1.417617599136   -0.311485209647
 H    1.698242300695    2.300617599136    0.264514790353
 H    1.914242300695    1.628617599136   -1.389485209647
 H    3.089242300695    1.215617599136   -0.091485209647
 C   -2.076757699305   -1.454382400864    0.320514790353
 H   -2.454757699305   -1.427382400864   -0.717485209647
 H   -2.669757699305   -0.755382400864    0.936514790353
 H   -2.186757699305   -2.474382400864    0.720514790353
LI    4.058112276521   -4.335569240476    2.287789481212
