14

 P   -0.380895079865    0.443434078754   -0.229630221686
 O   -0.967895079865    1.493434078754    0.725369778314
 O   -0.646895079865    0.491434078754   -1.741630221686
 O    1.282104920135    0.269434078754    0.057369778314
 O   -0.695895079865   -1.114565921246    0.362369778314
 C    2.019104920135    1.434434078754   -0.319630221686
 H    1.688104920135    2.317434078754    0.256369778314
 H    1.904104920135    1.645434078754   -1.397630221686
 H    3.079104920135    1.232434078754   -0.099630221686
 C   -2.086895079865   -1.437565921246    0.312369778314
 H   -2.464895079865   -1.410565921246   -0.725630221686
 H   -2.679895079865   -0.738565921246    0.928369778314
 H   -2.196895079865   -2.457565921246    0.712369778314
LI    4.238724549466   -4.635179439452    2.432904792681
