14

 P   -0.383429425006    0.447638198659   -0.231666474695
 O   -0.970429425006    1.497638198659    0.723333525305
 O   -0.649429425006    0.495638198659   -1.743666474695
 O    1.279570574994    0.273638198659    0.055333525305
 O   -0.698429425006   -1.110361801341    0.360333525305
 C    2.016570574994    1.438638198659   -0.321666474695
 H    1.685570574994    2.321638198659    0.254333525305
 H    1.901570574994    1.649638198659   -1.399666474695
 H    3.076570574994    1.236638198659   -0.101666474695
 C   -2.089429425006   -1.433361801341    0.310333525305
 H   -2.467429425006   -1.406361801341   -0.727666474695
 H   -2.682429425006   -0.734361801341    0.926333525305
 H   -2.199429425006   -2.453361801341    0.710333525305
LI    4.283877617702   -4.710081989196    2.469183620548
