14

 P   -0.403704186126    0.481271157896   -0.247956498773
 O   -0.990704186126    1.531271157896    0.707043501227
 O   -0.669704186126    0.529271157896   -1.759956498773
 O    1.259295813874    0.307271157896    0.039043501227
 O   -0.718704186126   -1.076728842104    0.344043501227
 C    1.996295813874    1.472271157896   -0.337956498773
 H    1.665295813874    2.355271157896    0.238043501227
 H    1.881295813874    1.683271157896   -1.415956498773
 H    3.056295813874    1.270271157896   -0.117956498773
 C   -2.109704186126   -1.399728842104    0.294043501227
 H   -2.487704186126   -1.372728842104   -0.743956498773
 H   -2.702704186126   -0.700728842104    0.910043501227
 H   -2.219704186126   -2.419728842104    0.694043501227
LI    4.645102163592   -5.309302387147    2.759414243485
