14

 P   -0.411307221547    0.493883517609   -0.254065257802
 O   -0.998307221547    1.543883517609    0.700934742198
 O   -0.677307221547    0.541883517609   -1.766065257802
 O    1.251692778453    0.319883517609    0.032934742198
 O   -0.726307221547   -1.064116482391    0.337934742198
 C    1.988692778453    1.484883517609   -0.344065257802
 H    1.657692778453    2.367883517609    0.231934742198
 H    1.873692778453    1.695883517609   -1.422065257802
 H    3.048692778453    1.282883517609   -0.124065257802
 C   -2.117307221547   -1.387116482391    0.287934742198
 H   -2.495307221547   -1.360116482391   -0.750065257802
 H   -2.710307221547   -0.688116482391    0.903934742198
 H   -2.227307221547   -2.407116482391    0.687934742198
LI    4.780561368301   -5.534010036379    2.868250727087
