14

 P   -0.423978947247    0.514904117132   -0.264246522851
 O   -1.010978947247    1.564904117132    0.690753477149
 O   -0.689978947247    0.562904117132   -1.776246522851
 O    1.239021052753    0.340904117132    0.022753477149
 O   -0.738978947247   -1.043095882868    0.327753477149
 C    1.976021052753    1.505904117132   -0.354246522851
 H    1.645021052753    2.388904117132    0.221753477149
 H    1.861021052753    1.716904117132   -1.432246522851
 H    3.036021052753    1.303904117132   -0.134246522851
 C   -2.129978947247   -1.366095882868    0.277753477149
 H   -2.507978947247   -1.339095882868   -0.760246522851
 H   -2.722978947247   -0.667095882868    0.893753477149
 H   -2.239978947247   -2.386095882868    0.677753477149
LI    5.006326709482   -5.908522785098    3.049644866422
