14

 P   -0.434116327808    0.531720596750   -0.272391534890
 O   -1.021116327808    1.581720596750    0.682608465110
 O   -0.700116327808    0.579720596750   -1.784391534890
 O    1.228883672192    0.357720596750    0.014608465110
 O   -0.749116327808   -1.026279403250    0.319608465110
 C    1.965883672192    1.522720596750   -0.362391534890
 H    1.634883672192    2.405720596750    0.213608465110
 H    1.850883672192    1.733720596750   -1.440391534890
 H    3.025883672192    1.320720596750   -0.142391534890
 C   -2.140116327808   -1.349279403250    0.269608465110
 H   -2.518116327808   -1.322279403250   -0.768391534890
 H   -2.733116327808   -0.650279403250    0.885608465110
 H   -2.250116327808   -2.369279403250    0.669608465110
LI    5.186938982427   -6.208132984074    3.194760177891
