14

 P   -0.436650672948    0.535924716655   -0.274427787899
 O   -1.023650672948    1.585924716655    0.680572212101
 O   -0.702650672948    0.583924716655   -1.786427787899
 O    1.226349327052    0.361924716655    0.012572212101
 O   -0.751650672948   -1.022075283345    0.317572212101
 C    1.963349327052    1.526924716655   -0.364427787899
 H    1.632349327052    2.409924716655    0.211572212101
 H    1.848349327052    1.737924716655   -1.442427787899
 H    3.023349327052    1.324924716655   -0.144427787899
 C   -2.142650672948   -1.345075283345    0.267572212101
 H   -2.520650672948   -1.318075283345   -0.770427787899
 H   -2.735650672948   -0.646075283345    0.883572212101
 H   -2.252650672948   -2.365075283345    0.667572212101
LI    5.232092050663   -6.283035533818    3.231039005758
