14

 P   -0.469597159769    0.590578275414   -0.300899077026
 O   -1.056597159769    1.640578275414    0.654100922974
 O   -0.735597159769    0.638578275414   -1.812899077026
 O    1.193402840231    0.416578275414   -0.013899077026
 O   -0.784597159769   -0.967421724586    0.291100922974
 C    1.930402840231    1.581578275414   -0.390899077026
 H    1.599402840231    2.464578275414    0.185100922974
 H    1.815402840231    1.792578275414   -1.468899077026
 H    2.990402840231    1.379578275414   -0.170899077026
 C   -2.175597159769   -1.290421724586    0.241100922974
 H   -2.553597159769   -1.263421724586   -0.796899077026
 H   -2.768597159769   -0.591421724586    0.857100922974
 H   -2.285597159769   -2.310421724586    0.641100922974
LI    5.819081937734   -7.256768680489    3.702663768031
