14

 P   -0.474665850049    0.598986515224   -0.304971583045
 O   -1.061665850049    1.648986515224    0.650028416955
 O   -0.740665850049    0.646986515224   -1.816971583045
 O    1.188334149951    0.424986515224   -0.017971583045
 O   -0.789665850049   -0.959013484776    0.287028416955
 C    1.925334149951    1.589986515224   -0.394971583045
 H    1.594334149951    2.472986515224    0.181028416955
 H    1.810334149951    1.800986515224   -1.472971583045
 H    2.985334149951    1.387986515224   -0.174971583045
 C   -2.180665850049   -1.282013484776    0.237028416955
 H   -2.558665850049   -1.255013484776   -0.800971583045
 H   -2.773665850049   -0.583013484776    0.853028416955
 H   -2.290665850049   -2.302013484776    0.637028416955
LI    5.909388074206   -7.406573779976    3.775221423766
