16

 N   -2.069196147779   -0.125751960903    0.146333347103
 C   -0.837070415512   -0.756042240911    0.147288307411
 N   -0.566929479386   -2.076927715879    0.143824118464
 C    0.761199689077   -2.295121608629    0.159391547127
 H    1.075007972047   -3.341800341119    0.162771117818
 N    1.773549132118   -1.387140651488    0.173362817402
 C    1.461332388211   -0.076319568239    0.168716413502
 N    2.468959343013    0.848179069066    0.126894576571
 H    3.400410880400    0.517648960314    0.349352510704
 H    2.236221836986    1.808149824105    0.351704822011
 C    0.095831547337    0.300374285628    0.159945325787
 N   -0.527697763854    1.539339986258    0.169823534805
 C   -1.827623251011    1.231260597897    0.161368681647
 H   -2.637676779798    1.957841398999    0.165416819510
 H   -2.972985824949   -0.586009084737    0.138730291170
NA   -0.524517653189    1.549710244151   -0.930122984189
