16

 N   -2.069322309231   -0.126163370103    0.189970460322
 C   -0.837196576964   -0.756453650111    0.190925420630
 N   -0.567055640838   -2.077339125079    0.187461231683
 C    0.761073527625   -2.295533017829    0.203028660346
 H    1.074881810595   -3.342211750319    0.206408231037
 N    1.773422970666   -1.387552060688    0.216999930621
 C    1.461206226759   -0.076730977439    0.212353526721
 N    2.468833181561    0.847767659866    0.170531689790
 H    3.400284718948    0.517237551114    0.392989623923
 H    2.236095675534    1.807738414905    0.395341935230
 C    0.095705385885    0.299962876428    0.203582439006
 N   -0.527823925306    1.538928577058    0.213460648024
 C   -1.827749412463    1.230849188697    0.205005794866
 H   -2.637802941250    1.957429989799    0.209053932729
 H   -2.973111986401   -0.586420493937    0.182367404389
NA   -0.523776511732    1.552127087103   -1.186471285241
