16

 N   -2.069658739767   -0.127260461304    0.306336095572
 C   -0.837533007500   -0.757550741312    0.307291055880
 N   -0.567392071374   -2.078436216280    0.303826866933
 C    0.760737097089   -2.296630109030    0.319394295596
 H    1.074545380059   -3.343308841520    0.322773866287
 N    1.773086540130   -1.388649151889    0.333365565871
 C    1.460869796223   -0.077828068640    0.328719161971
 N    2.468496751025    0.846670568665    0.286897325040
 H    3.399948288412    0.516140459913    0.509355259173
 H    2.235759244998    1.806641323704    0.511707570480
 C    0.095368955349    0.298865785227    0.319948074256
 N   -0.528160355842    1.537831485857    0.329826283274
 C   -1.828085842999    1.229752097496    0.321371430116
 H   -2.638139371786    1.956332898598    0.325419567979
 H   -2.973448416937   -0.587517585138    0.298733039639
NA   -0.521800134513    1.558572001642   -1.870066754714
