16

 N   -2.069700793584   -0.127397597704    0.320881799979
 C   -0.837575061317   -0.757687877712    0.321836760287
 N   -0.567434125191   -2.078573352680    0.318372571340
 C    0.760695043272   -2.296767245430    0.333940000003
 H    1.074503326242   -3.343445977920    0.337319570694
 N    1.773044486313   -1.388786288289    0.347911270278
 C    1.460827742406   -0.077965205040    0.343264866378
 N    2.468454697208    0.846533432265    0.301443029447
 H    3.399906234595    0.516003323513    0.523900963580
 H    2.235717191181    1.806504187304    0.526253274887
 C    0.095326901532    0.298728648827    0.334493778663
 N   -0.528202409659    1.537694349457    0.344371987681
 C   -1.828127896816    1.229614961096    0.335917134523
 H   -2.638181425603    1.956195762198    0.339965272386
 H   -2.973490470754   -0.587654721538    0.313278744046
NA   -0.521553087360    1.559377615960   -1.955516188398
