16

 N   -2.069784901218   -0.127671870504    0.349973208791
 C   -0.837659168951   -0.757962150512    0.350928169099
 N   -0.567518232825   -2.078847625480    0.347463980152
 C    0.760610935638   -2.297041518230    0.363031408815
 H    1.074419218608   -3.343720250720    0.366410979506
 N    1.772960378679   -1.389060561089    0.377002679090
 C    1.460743634772   -0.078239477840    0.372356275190
 N    2.468370589574    0.846259159465    0.330534438259
 H    3.399822126961    0.515729050713    0.552992372392
 H    2.235633083547    1.806229914504    0.555344683699
 C    0.095242793898    0.298454376027    0.363585187475
 N   -0.528286517293    1.537420076657    0.373463396493
 C   -1.828212004450    1.229340688296    0.365008543335
 H   -2.638265533237    1.955921489398    0.369056681198
 H   -2.973574578388   -0.587928994338    0.342370152858
NA   -0.521058993055    1.560988844595   -2.126415055766
