16

 N   -2.069826955036   -0.127809006904    0.364518913198
 C   -0.837701222769   -0.758099286912    0.365473873506
 N   -0.567560286643   -2.078984761880    0.362009684559
 C    0.760568881820   -2.297178654630    0.377577113222
 H    1.074377164790   -3.343857387120    0.380956683913
 N    1.772918324861   -1.389197697489    0.391548383497
 C    1.460701580954   -0.078376614240    0.386901979597
 N    2.468328535756    0.846122023065    0.345080142666
 H    3.399780073143    0.515591914313    0.567538076799
 H    2.235591029729    1.806092778104    0.569890388106
 C    0.095200740080    0.298317239627    0.378130891882
 N   -0.528328571111    1.537282940257    0.388009100900
 C   -1.828254058268    1.229203551896    0.379554247742
 H   -2.638307587055    1.955784352998    0.383602385605
 H   -2.973616632206   -0.588066130738    0.356915857265
NA   -0.520811945903    1.561794458912   -2.211864489450
