16

 N   -2.069869008853   -0.127946143304    0.379064617604
 C   -0.837743276586   -0.758236423312    0.380019577912
 N   -0.567602340460   -2.079121898280    0.376555388965
 C    0.760526828003   -2.297315791030    0.392122817628
 H    1.074335110973   -3.343994523520    0.395502388319
 N    1.772876271044   -1.389334833889    0.406094087903
 C    1.460659527137   -0.078513750640    0.401447684003
 N    2.468286481939    0.845984886665    0.359625847072
 H    3.399738019326    0.515454777913    0.582083781205
 H    2.235548975912    1.805955641704    0.584436092512
 C    0.095158686263    0.298180103227    0.392676596288
 N   -0.528370624928    1.537145803857    0.402554805306
 C   -1.828296112085    1.229066415496    0.394099952148
 H   -2.638349640872    1.955647216598    0.398148090011
 H   -2.973658686023   -0.588203267138    0.371461561671
NA   -0.520564898750    1.562600073229   -2.297313923134
