16

 N   -2.069953116487   -0.128220416105    0.408156026416
 C   -0.837827384220   -0.758510696113    0.409110986724
 N   -0.567686448094   -2.079396171081    0.405646797777
 C    0.760442720369   -2.297590063831    0.421214226440
 H    1.074251003339   -3.344268796321    0.424593797131
 N    1.772792163410   -1.389609106690    0.435185496715
 C    1.460575419503   -0.078788023441    0.430539092815
 N    2.468202374305    0.845710613864    0.388717255884
 H    3.399653911692    0.515180505112    0.611175190017
 H    2.235464868278    1.805681368903    0.613527501324
 C    0.095074578629    0.297905830426    0.421768005100
 N   -0.528454732562    1.536871531056    0.431646214118
 C   -1.828380219719    1.228792142695    0.423191360960
 H   -2.638433748506    1.955372943797    0.427239498823
 H   -2.973742793657   -0.588477539939    0.400552970483
NA   -0.520070804445    1.564211301864   -2.468212790503
