16

 N   -2.070037224121   -0.128494688905    0.437247435229
 C   -0.837911491854   -0.758784968913    0.438202395537
 N   -0.567770555728   -2.079670443881    0.434738206590
 C    0.760358612735   -2.297864336631    0.450305635253
 H    1.074166895705   -3.344543069121    0.453685205944
 N    1.772708055776   -1.389883379490    0.464276905528
 C    1.460491311869   -0.079062296241    0.459630501628
 N    2.468118266671    0.845436341064    0.417808664697
 H    3.399569804058    0.514906232312    0.640266598830
 H    2.235380760644    1.805407096103    0.642618910137
 C    0.094990470995    0.297631557626    0.450859413913
 N   -0.528538840196    1.536597258256    0.460737622931
 C   -1.828464327353    1.228517869895    0.452282769773
 H   -2.638517856140    1.955098670997    0.456330907636
 H   -2.973826901291   -0.588751812739    0.429644379296
NA   -0.519576710140    1.565822530499   -2.639111657871
