16

 N   -2.070079277938   -0.128631825305    0.451793139635
 C   -0.837953545671   -0.758922105313    0.452748099943
 N   -0.567812609545   -2.079807580281    0.449283910996
 C    0.760316558918   -2.298001473031    0.464851339659
 H    1.074124841888   -3.344680205521    0.468230910350
 N    1.772666001959   -1.390020515890    0.478822609934
 C    1.460449258052   -0.079199432641    0.474176206034
 N    2.468076212854    0.845299204664    0.432354369103
 H    3.399527750241    0.514769095912    0.654812303236
 H    2.235338706827    1.805269959703    0.657164614543
 C    0.094948417178    0.297494421226    0.465405118319
 N   -0.528580894013    1.536460121856    0.475283327337
 C   -1.828506381170    1.228380733495    0.466828474179
 H   -2.638559909957    1.954961534597    0.470876612042
 H   -2.973868955108   -0.588888949139    0.444190083702
NA   -0.519329662988    1.566628144816   -2.724561091555
