16

 N   -2.070121331755   -0.128768961705    0.466338844041
 C   -0.837995599488   -0.759059241713    0.467293804349
 N   -0.567854663362   -2.079944716681    0.463829615402
 C    0.760274505101   -2.298138609431    0.479397044065
 H    1.074082788071   -3.344817341921    0.482776614756
 N    1.772623948142   -1.390157652290    0.493368314340
 C    1.460407204235   -0.079336569041    0.488721910440
 N    2.468034159037    0.845162068264    0.446900073509
 H    3.399485696424    0.514631959512    0.669358007642
 H    2.235296653010    1.805132823303    0.671710318949
 C    0.094906363361    0.297357284826    0.479950822725
 N   -0.528622947830    1.536322985456    0.489829031743
 C   -1.828548434987    1.228243597095    0.481374178585
 H   -2.638601963774    1.954824398197    0.485422316448
 H   -2.973911008925   -0.589026085539    0.458735788108
NA   -0.519082615836    1.567433759134   -2.810010525239
