16

 N   -2.070247493206   -0.129180370905    0.509975957260
 C   -0.838121760939   -0.759470650913    0.510930917568
 N   -0.567980824813   -2.080356125881    0.507466728621
 C    0.760148343650   -2.298550018631    0.523034157284
 H    1.073956626620   -3.345228751121    0.526413727975
 N    1.772497786691   -1.390569061490    0.537005427559
 C    1.460281042784   -0.079747978241    0.532359023659
 N    2.467907997586    0.844750659064    0.490537186728
 H    3.399359534973    0.514220550312    0.712995120861
 H    2.235170491559    1.804721414103    0.715347432168
 C    0.094780201910    0.296945875626    0.523587935944
 N   -0.528749109281    1.535911576256    0.533466144962
 C   -1.828674596438    1.227832187895    0.525011291804
 H   -2.638728125225    1.954412988997    0.529059429667
 H   -2.974037170376   -0.589437494739    0.502372901327
NA   -0.518341474378    1.569850602086   -3.066358826291
