16

 N   -2.070289547023   -0.129317507305    0.524521661667
 C   -0.838163814756   -0.759607787313    0.525476621975
 N   -0.568022878630   -2.080493262281    0.522012433028
 C    0.760106289833   -2.298687155031    0.537579861691
 H    1.073914572803   -3.345365887521    0.540959432382
 N    1.772455732874   -1.390706197890    0.551551131966
 C    1.460238988967   -0.079885114641    0.546904728066
 N    2.467865943769    0.844613522664    0.505082891135
 H    3.399317481156    0.514083413912    0.727540825268
 H    2.235128437742    1.804584277703    0.729893136575
 C    0.094738148093    0.296808739226    0.538133640351
 N   -0.528791163098    1.535774439856    0.548011849369
 C   -1.828716650255    1.227695051495    0.539556996211
 H   -2.638770179042    1.954275852597    0.543605134074
 H   -2.974079224193   -0.589574631139    0.516918605734
NA   -0.518094427226    1.570656216403   -3.151808259975
