16

 N   -2.070331600841   -0.129454643706    0.539067366073
 C   -0.838205868574   -0.759744923714    0.540022326381
 N   -0.568064932448   -2.080630398682    0.536558137434
 C    0.760064236015   -2.298824291432    0.552125566097
 H    1.073872518985   -3.345503023922    0.555505136788
 N    1.772413679056   -1.390843334291    0.566096836372
 C    1.460196935149   -0.080022251042    0.561450432472
 N    2.467823889951    0.844476386263    0.519628595541
 H    3.399275427338    0.513946277511    0.742086529674
 H    2.235086383924    1.804447141302    0.744438840981
 C    0.094696094275    0.296671602825    0.552679344757
 N   -0.528833216916    1.535637303455    0.562557553775
 C   -1.828758704073    1.227557915094    0.554102700617
 H   -2.638812232860    1.954138716196    0.558150838480
 H   -2.974121278011   -0.589711767540    0.531464310140
NA   -0.517847380073    1.571461830721   -3.237257693660
