16

 N   -2.070541869926   -0.130140325706    0.611795888104
 C   -0.838416137659   -0.760430605714    0.612750848412
 N   -0.568275201533   -2.081316080682    0.609286659465
 C    0.759853966930   -2.299509973432    0.624854088128
 H    1.073662249900   -3.346188705922    0.628233658819
 N    1.772203409971   -1.391529016291    0.638825358403
 C    1.459986666064   -0.080707933042    0.634178954503
 N    2.467613620866    0.843790704263    0.592357117572
 H    3.399065158253    0.513260595511    0.814815051705
 H    2.234876114839    1.803761459302    0.817167363012
 C    0.094485825190    0.295985920825    0.625407866788
 N   -0.529043486001    1.534951621455    0.635286075806
 C   -1.828968973158    1.226872233094    0.626831222648
 H   -2.639022501945    1.953453034196    0.630879360511
 H   -2.974331547096   -0.590397449540    0.604192832171
NA   -0.516612144311    1.575489902308   -3.664504862080
