16

 N   -2.070794192828   -0.130963144107    0.699070114542
 C   -0.838668460561   -0.761253424115    0.700025074850
 N   -0.568527524435   -2.082138899083    0.696560885903
 C    0.759601644028   -2.300332791833    0.712128314566
 H    1.073409926998   -3.347011524323    0.715507885257
 N    1.771951087069   -1.392351834692    0.726099584841
 C    1.459734343162   -0.081530751443    0.721453180941
 N    2.467361297964    0.842967885862    0.679631344010
 H    3.398812835351    0.512437777110    0.902089278143
 H    2.234623791937    1.802938640901    0.904441589450
 C    0.094233502288    0.295163102424    0.712682093226
 N   -0.529295808903    1.534128803054    0.722560302244
 C   -1.829221296060    1.226049414693    0.714105449086
 H   -2.639274824847    1.952630215795    0.718153586949
 H   -2.974583869998   -0.591220267941    0.691467058609
NA   -0.515129861396    1.580323588212   -4.177201464185
