16

 N   -2.070836246646   -0.131100280507    0.713615818948
 C   -0.838710514379   -0.761390560515    0.714570779256
 N   -0.568569578253   -2.082276035483    0.711106590309
 C    0.759559590210   -2.300469928233    0.726674018972
 H    1.073367873180   -3.347148660723    0.730053589663
 N    1.771909033251   -1.392488971092    0.740645289247
 C    1.459692289344   -0.081667887843    0.735998885347
 N    2.467319244146    0.842830749462    0.694177048416
 H    3.398770781533    0.512300640710    0.916634982549
 H    2.234581738119    1.802801504501    0.918987293856
 C    0.094191448470    0.295025966024    0.727227797632
 N   -0.529337862721    1.533991666654    0.737106006650
 C   -1.829263349878    1.225912278293    0.728651153492
 H   -2.639316878665    1.952493079395    0.732699291355
 H   -2.974625923816   -0.591357404341    0.706012763015
NA   -0.514882814244    1.581129202530   -4.262650897869
