16

 N   -2.070962408097   -0.131511689707    0.757252932167
 C   -0.838836675830   -0.761801969715    0.758207892475
 N   -0.568695739704   -2.082687444683    0.754743703528
 C    0.759433428759   -2.300881337433    0.770311132191
 H    1.073241711729   -3.347560069923    0.773690702882
 N    1.771782871800   -1.392900380292    0.784282402466
 C    1.459566127893   -0.082079297043    0.779635998566
 N    2.467193082695    0.842419340262    0.737814161635
 H    3.398644620082    0.511889231510    0.960272095768
 H    2.234455576668    1.802390095301    0.962624407075
 C    0.094065287019    0.294614556824    0.770864910851
 N   -0.529464024172    1.533580257454    0.780743119869
 C   -1.829389511329    1.225500869093    0.772288266711
 H   -2.639443040116    1.952081670195    0.776336404574
 H   -2.974752085267   -0.591768813541    0.749649876234
NA   -0.514141672787    1.583546045482   -4.518999198921
