16

 N   -2.071004461914   -0.131648826107    0.771798636573
 C   -0.838878729647   -0.761939106115    0.772753596881
 N   -0.568737793521   -2.082824581083    0.769289407934
 C    0.759391374942   -2.301018473833    0.784856836597
 H    1.073199657912   -3.347697206323    0.788236407288
 N    1.771740817983   -1.393037516692    0.798828106872
 C    1.459524074076   -0.082216433443    0.794181702972
 N    2.467151028878    0.842282203862    0.752359866041
 H    3.398602566265    0.511752095110    0.974817800174
 H    2.234413522851    1.802252958901    0.977170111481
 C    0.094023233202    0.294477420424    0.785410615257
 N   -0.529506077989    1.533443121054    0.795288824275
 C   -1.829431565146    1.225363732693    0.786833971117
 H   -2.639485093933    1.951944533795    0.790882108980
 H   -2.974794139084   -0.591905949941    0.764195580640
NA   -0.513894625634    1.584351659799   -4.604448632605
