16

 N   -2.071088569548   -0.131923098907    0.800890045386
 C   -0.838962837281   -0.762213378915    0.801845005694
 N   -0.568821901155   -2.083098853883    0.798380816747
 C    0.759307267308   -2.301292746633    0.813948245410
 H    1.073115550278   -3.347971479123    0.817327816101
 N    1.771656710349   -1.393311789492    0.827919515685
 C    1.459439966442   -0.082490706243    0.823273111785
 N    2.467066921244    0.842007931062    0.781451274854
 H    3.398518458631    0.511477822310    1.003909208987
 H    2.234329415217    1.801978686101    1.006261520294
 C    0.093939125568    0.294203147624    0.814502024070
 N   -0.529590185623    1.533168848254    0.824380233088
 C   -1.829515672780    1.225089459893    0.815925379930
 H   -2.639569201567    1.951670260995    0.819973517793
 H   -2.974878246718   -0.592180222741    0.793286989453
NA   -0.513400531329    1.585962888434   -4.775347499973
