16

 N   -2.071172677182   -0.132197371708    0.829981454198
 C   -0.839046944915   -0.762487651716    0.830936414506
 N   -0.568906008789   -2.083373126684    0.827472225559
 C    0.759223159674   -2.301567019434    0.843039654222
 H    1.073031442644   -3.348245751924    0.846419224913
 N    1.771572602715   -1.393586062293    0.857010924497
 C    1.459355858808   -0.082764979044    0.852364520597
 N    2.466982813610    0.841733658261    0.810542683666
 H    3.398434350997    0.511203549509    1.033000617799
 H    2.234245307583    1.801704413300    1.035352929106
 C    0.093855017934    0.293928874823    0.843593432882
 N   -0.529674293257    1.532894575453    0.853471641900
 C   -1.829599780414    1.224815187092    0.845016788742
 H   -2.639653309201    1.951395988194    0.849064926605
 H   -2.974962354352   -0.592454495542    0.822378398265
NA   -0.512906437024    1.587574117069   -4.946246367342
