16

 N   -2.071214730999   -0.132334508108    0.844527158605
 C   -0.839088998732   -0.762624788116    0.845482118913
 N   -0.568948062606   -2.083510263084    0.842017929966
 C    0.759181105857   -2.301704155834    0.857585358629
 H    1.072989388827   -3.348382888324    0.860964929320
 N    1.771530548898   -1.393723198693    0.871556628904
 C    1.459313804991   -0.082902115444    0.866910225004
 N    2.466940759793    0.841596521861    0.825088388073
 H    3.398392297180    0.511066413109    1.047546322206
 H    2.234203253766    1.801567276900    1.049898633513
 C    0.093812964117    0.293791738423    0.858139137289
 N   -0.529716347074    1.532757439053    0.868017346307
 C   -1.829641834231    1.224678050692    0.859562493149
 H   -2.639695363018    1.951258851794    0.863610631012
 H   -2.975004408169   -0.592591631942    0.836924102672
NA   -0.512659389872    1.588379731386   -5.031695801026
