16

 N   -2.071340892451   -0.132745917308    0.888164271823
 C   -0.839215160184   -0.763036197316    0.889119232131
 N   -0.569074224058   -2.083921672284    0.885655043184
 C    0.759054944405   -2.302115565034    0.901222471847
 H    1.072863227375   -3.348794297524    0.904602042538
 N    1.771404387446   -1.394134607893    0.915193742122
 C    1.459187643539   -0.083313524644    0.910547338222
 N    2.466814598341    0.841185112661    0.868725501291
 H    3.398266135728    0.510655003909    1.091183435424
 H    2.234077092314    1.801155867700    1.093535746731
 C    0.093686802665    0.293380329223    0.901776250507
 N   -0.529842508526    1.532346029853    0.911654459525
 C   -1.829767995683    1.224266641492    0.903199606367
 H   -2.639821524470    1.950847442594    0.907247744230
 H   -2.975130569621   -0.593003041142    0.880561215890
NA   -0.511918248415    1.590796574339   -5.288044102078
