16

 N   -2.071425000085   -0.133020190108    0.917255680636
 C   -0.839299267818   -0.763310470116    0.918210640944
 N   -0.569158331692   -2.084195945084    0.914746451997
 C    0.758970836771   -2.302389837834    0.930313880660
 H    1.072779119741   -3.349068570324    0.933693451351
 N    1.771320279812   -1.394408880693    0.944285150935
 C    1.459103535905   -0.083587797444    0.939638747035
 N    2.466730490707    0.840910839861    0.897816910104
 H    3.398182028094    0.510380731109    1.120274844237
 H    2.233992984680    1.800881594900    1.122627155544
 C    0.093602695031    0.293106056423    0.930867659320
 N   -0.529926616160    1.532071757053    0.940745868338
 C   -1.829852103317    1.223992368692    0.932291015180
 H   -2.639905632104    1.950573169794    0.936339153043
 H   -2.975214677255   -0.593277313942    0.909652624703
NA   -0.511424154110    1.592407802973   -5.458942969446
