16

 N   -2.071467053902   -0.133157326508    0.931801385042
 C   -0.839341321635   -0.763447606516    0.932756345350
 N   -0.569200385509   -2.084333081484    0.929292156403
 C    0.758928782954   -2.302526974234    0.944859585066
 H    1.072737065924   -3.349205706724    0.948239155757
 N    1.771278225995   -1.394546017093    0.958830855341
 C    1.459061482088   -0.083724933844    0.954184451441
 N    2.466688436890    0.840773703461    0.912362614510
 H    3.398139974277    0.510243594709    1.134820548643
 H    2.233950930863    1.800744458500    1.137172859950
 C    0.093560641214    0.292968920023    0.945413363726
 N   -0.529968669977    1.531934620653    0.955291572744
 C   -1.829894157134    1.223855232292    0.946836719586
 H   -2.639947685921    1.950436033394    0.950884857449
 H   -2.975256731072   -0.593414450342    0.924198329109
NA   -0.511177106957    1.593213417291   -5.544392403130
