16

 N   -2.071509107719   -0.133294462908    0.946347089449
 C   -0.839383375452   -0.763584742916    0.947302049757
 N   -0.569242439326   -2.084470217884    0.943837860810
 C    0.758886729137   -2.302664110634    0.959405289473
 H    1.072695012107   -3.349342843124    0.962784860164
 N    1.771236172178   -1.394683153493    0.973376559748
 C    1.459019428271   -0.083862070244    0.968730155848
 N    2.466646383073    0.840636567061    0.926908318917
 H    3.398097920460    0.510106458309    1.149366253050
 H    2.233908877046    1.800607322100    1.151718564357
 C    0.093518587397    0.292831783623    0.959959068133
 N   -0.530010723794    1.531797484253    0.969837277151
 C   -1.829936210951    1.223718095892    0.961382423993
 H   -2.639989739738    1.950298896994    0.965430561856
 H   -2.975298784889   -0.593551586742    0.938744033516
NA   -0.510930059805    1.594019031608   -5.629841836814
