16

 N   -2.071551161536   -0.133431599309    0.960892793855
 C   -0.839425429269   -0.763721879317    0.961847754163
 N   -0.569284493143   -2.084607354285    0.958383565216
 C    0.758844675320   -2.302801247035    0.973950993879
 H    1.072652958290   -3.349479979525    0.977330564570
 N    1.771194118361   -1.394820289894    0.987922264154
 C    1.458977374454   -0.083999206645    0.983275860254
 N    2.466604329256    0.840499430660    0.941454023323
 H    3.398055866643    0.509969321908    1.163911957456
 H    2.233866823229    1.800470185699    1.166264268763
 C    0.093476533580    0.292694647222    0.974504772539
 N   -0.530052777611    1.531660347852    0.984382981557
 C   -1.829978264768    1.223580959491    0.975928128399
 H   -2.640031793555    1.950161760593    0.979976266262
 H   -2.975340838706   -0.593688723143    0.953289737922
NA   -0.510683012652    1.594824645926   -5.715291270499
