16

 N   -2.071635269170   -0.133705872109    0.989984202667
 C   -0.839509536903   -0.763996152117    0.990939162975
 N   -0.569368600777   -2.084881627085    0.987474974028
 C    0.758760567686   -2.303075519835    1.003042402691
 H    1.072568850656   -3.349754252325    1.006421973382
 N    1.771110010727   -1.395094562694    1.017013672966
 C    1.458893266820   -0.084273479445    1.012367269066
 N    2.466520221622    0.840225157860    0.970545432135
 H    3.397971759009    0.509695049108    1.193003366268
 H    2.233782715595    1.800195912899    1.195355677575
 C    0.093392425946    0.292420374422    1.003596181351
 N   -0.530136885245    1.531386075052    1.013474390369
 C   -1.830062372402    1.223306686691    1.005019537211
 H   -2.640115901189    1.949887487793    1.009067675074
 H   -2.975424946340   -0.593962995943    0.982381146734
NA   -0.510188918347    1.596435874560   -5.886190137867
