16

 N   -2.071719376804   -0.133980144909    1.019075611480
 C   -0.839593644537   -0.764270424917    1.020030571788
 N   -0.569452708411   -2.085155899885    1.016566382841
 C    0.758676460052   -2.303349792635    1.032133811504
 H    1.072484743022   -3.350028525125    1.035513382195
 N    1.771025903093   -1.395368835494    1.046105081779
 C    1.458809159186   -0.084547752245    1.041458677879
 N    2.466436113988    0.839950885060    0.999636840948
 H    3.397887651375    0.509420776308    1.222094775081
 H    2.233698607961    1.799921640099    1.224447086388
 C    0.093308318312    0.292146101622    1.032687590164
 N   -0.530220992879    1.531111802252    1.042565799182
 C   -1.830146480036    1.223032413891    1.034110946024
 H   -2.640200008823    1.949613214993    1.038159083887
 H   -2.975509053974   -0.594237268743    1.011472555547
NA   -0.509694824042    1.598047103195   -6.057089005235
