16

 N   -2.071971699707   -0.134802963310    1.106349837918
 C   -0.839845967440   -0.765093243318    1.107304798226
 N   -0.569705031314   -2.085978718286    1.103840609279
 C    0.758424137149   -2.304172611036    1.119408037942
 H    1.072232420119   -3.350851343526    1.122787608633
 N    1.770773580190   -1.396191653895    1.133379308217
 C    1.458556836283   -0.085370570646    1.128732904317
 N    2.466183791085    0.839128066659    1.086911067386
 H    3.397635328472    0.508597957907    1.309369001519
 H    2.233446285058    1.799098821698    1.311721312826
 C    0.093055995409    0.291323283221    1.119961816602
 N   -0.530473315782    1.530288983851    1.129840025620
 C   -1.830398802939    1.222209595490    1.121385172462
 H   -2.640452331726    1.948790396592    1.125433310325
 H   -2.975761376877   -0.595060087144    1.098746781985
NA   -0.508212541128    1.602880789100   -6.569785607340
