16

 N   -2.072013753524   -0.134940099710    1.120895542324
 C   -0.839888021257   -0.765230379718    1.121850502632
 N   -0.569747085131   -2.086115854686    1.118386313685
 C    0.758382083332   -2.304309747436    1.133953742348
 H    1.072190366302   -3.350988479926    1.137333313039
 N    1.770731526373   -1.396328790295    1.147925012623
 C    1.458514782466   -0.085507707046    1.143278608723
 N    2.466141737268    0.838990930259    1.101456771792
 H    3.397593274655    0.508460821507    1.323914705925
 H    2.233404231241    1.798961685298    1.326267017232
 C    0.093013941592    0.291186146821    1.134507521008
 N   -0.530515369599    1.530151847451    1.144385730026
 C   -1.830440856756    1.222072459090    1.135930876868
 H   -2.640494385543    1.948653260192    1.139979014731
 H   -2.975803430694   -0.595197223544    1.113292486391
NA   -0.507965493975    1.603686403417   -6.655235041024
