16

 N   -2.072097861158   -0.135214372510    1.149986951136
 C   -0.839972128891   -0.765504652518    1.150941911444
 N   -0.569831192765   -2.086390127486    1.147477722497
 C    0.758297975698   -2.304584020236    1.163045151160
 H    1.072106258668   -3.351262752726    1.166424721851
 N    1.770647418739   -1.396603063095    1.177016421435
 C    1.458430674832   -0.085781979846    1.172370017535
 N    2.466057629634    0.838716657459    1.130548180604
 H    3.397509167021    0.508186548707    1.353006114737
 H    2.233320123607    1.798687412498    1.355358426044
 C    0.092929833958    0.290911874021    1.163598929820
 N   -0.530599477233    1.529877574651    1.173477138838
 C   -1.830524964390    1.221798186290    1.165022285680
 H   -2.640578493177    1.948378987392    1.169070423543
 H   -2.975887538328   -0.595471496344    1.142383895203
NA   -0.507471399670    1.605297632052   -6.826133908392
