16

 N   -2.072139914975   -0.135351508910    1.164532655543
 C   -0.840014182708   -0.765641788918    1.165487615851
 N   -0.569873246582   -2.086527263886    1.162023426904
 C    0.758255921881   -2.304721156636    1.177590855567
 H    1.072064204851   -3.351399889126    1.180970426258
 N    1.770605364922   -1.396740199495    1.191562125842
 C    1.458388621015   -0.085919116246    1.186915721942
 N    2.466015575817    0.838579521059    1.145093885011
 H    3.397467113204    0.508049412307    1.367551819144
 H    2.233278069790    1.798550276098    1.369904130451
 C    0.092887780141    0.290774737621    1.178144634227
 N   -0.530641531050    1.529740438251    1.188022843245
 C   -1.830567018207    1.221661049890    1.179567990087
 H   -2.640620546994    1.948241850992    1.183616127950
 H   -2.975929592145   -0.595608632744    1.156929599610
NA   -0.507224352518    1.606103246369   -6.911583342076
