16

 N   -2.072181968792   -0.135488645310    1.179078359949
 C   -0.840056236525   -0.765778925318    1.180033320257
 N   -0.569915300399   -2.086664400286    1.176569131310
 C    0.758213868064   -2.304858293036    1.192136559973
 H    1.072022151034   -3.351537025526    1.195516130664
 N    1.770563311105   -1.396877335895    1.206107830248
 C    1.458346567198   -0.086056252646    1.201461426348
 N    2.465973522000    0.838442384659    1.159639589417
 H    3.397425059387    0.507912275907    1.382097523550
 H    2.233236015973    1.798413139698    1.384449834857
 C    0.092845726324    0.290637601221    1.192690338633
 N   -0.530683584867    1.529603301851    1.202568547651
 C   -1.830609072024    1.221523913490    1.194113694493
 H   -2.640662600811    1.948104714592    1.198161832356
 H   -2.975971645962   -0.595745769144    1.171475304016
NA   -0.506977305366    1.606908860687   -6.997032775760
