16

 N   -2.072308130243   -0.135900054510    1.222715473168
 C   -0.840182397976   -0.766190334518    1.223670433476
 N   -0.570041461850   -2.087075809486    1.220206244529
 C    0.758087706613   -2.305269702236    1.235773673192
 H    1.071895989583   -3.351948434726    1.239153243883
 N    1.770437149654   -1.397288745095    1.249744943467
 C    1.458220405747   -0.086467661846    1.245098539567
 N    2.465847360549    0.838030975459    1.203276702636
 H    3.397298897936    0.507500866707    1.425734636769
 H    2.233109854522    1.798001730498    1.428086948076
 C    0.092719564873    0.290226192021    1.236327451852
 N   -0.530809746318    1.529191892651    1.246205660870
 C   -1.830735233475    1.221112504290    1.237750807712
 H   -2.640788762262    1.947693305392    1.241798945575
 H   -2.976097807413   -0.596157178344    1.215112417235
NA   -0.506236163908    1.609325703639   -7.253381076812
