16

 N   -2.072350184060   -0.136037190911    1.237261177574
 C   -0.840224451793   -0.766327470919    1.238216137882
 N   -0.570083515667   -2.087212945887    1.234751948935
 C    0.758045652796   -2.305406838637    1.250319377598
 H    1.071853935766   -3.352085571127    1.253698948289
 N    1.770395095837   -1.397425881496    1.264290647873
 C    1.458178351930   -0.086604798247    1.259644243973
 N    2.465805306732    0.837893839058    1.217822407042
 H    3.397256844119    0.507363730306    1.440280341175
 H    2.233067800705    1.797864594097    1.442632652482
 C    0.092677511056    0.290089055620    1.250873156258
 N   -0.530851800135    1.529054756250    1.260751365276
 C   -1.830777287292    1.220975367889    1.252296512118
 H   -2.640830816079    1.947556168991    1.256344649981
 H   -2.976139861230   -0.596294314745    1.229658121641
NA   -0.505989116756    1.610131317956   -7.338830510497
