16

 N   -2.072392237878   -0.136174327311    1.251806881980
 C   -0.840266505611   -0.766464607319    1.252761842288
 N   -0.570125569485   -2.087350082287    1.249297653341
 C    0.758003598978   -2.305543975037    1.264865082004
 H    1.071811881948   -3.352222707527    1.268244652695
 N    1.770353042019   -1.397563017896    1.278836352279
 C    1.458136298112   -0.086741934647    1.274189948379
 N    2.465763252914    0.837756702658    1.232368111448
 H    3.397214790301    0.507226593906    1.454826045581
 H    2.233025746887    1.797727457697    1.457178356888
 C    0.092635457238    0.289951919220    1.265418860664
 N   -0.530893853953    1.528917619850    1.275297069682
 C   -1.830819341110    1.220838231489    1.266842216524
 H   -2.640872869897    1.947419032591    1.270890354387
 H   -2.976181915048   -0.596431451145    1.244203826047
NA   -0.505742069603    1.610936932274   -7.424279944181
