16

 N   -2.072518399329   -0.136585736511    1.295443995199
 C   -0.840392667062   -0.766876016519    1.296398955507
 N   -0.570251730936   -2.087761491487    1.292934766560
 C    0.757877437527   -2.305955384237    1.308502195223
 H    1.071685720497   -3.352634116727    1.311881765914
 N    1.770226880568   -1.397974427096    1.322473465498
 C    1.458010136661   -0.087153343847    1.317827061598
 N    2.465637091463    0.837345293458    1.276005224667
 H    3.397088628850    0.506815184706    1.498463158800
 H    2.232899585436    1.797316048497    1.500815470107
 C    0.092509295787    0.289540510020    1.309055973883
 N   -0.531020015404    1.528506210650    1.318934182901
 C   -1.830945502561    1.220426822289    1.310479329743
 H   -2.640999031348    1.947007623391    1.314527467606
 H   -2.976308076499   -0.596842860345    1.287840939266
NA   -0.505000928146    1.613353775226   -7.680628245233
