16

 N   -2.072602506963   -0.136860009311    1.324535404012
 C   -0.840476774696   -0.767150289319    1.325490364320
 N   -0.570335838570   -2.088035764287    1.322026175373
 C    0.757793329893   -2.306229657037    1.337593604036
 H    1.071601612863   -3.352908389527    1.340973174727
 N    1.770142772934   -1.398248699896    1.351564874311
 C    1.457926029027   -0.087427616647    1.346918470411
 N    2.465552983829    0.837071020658    1.305096633480
 H    3.397004521216    0.506540911906    1.527554567613
 H    2.232815477802    1.797041775697    1.529906878920
 C    0.092425188153    0.289266237220    1.338147382696
 N   -0.531104123038    1.528231937850    1.348025591714
 C   -1.831029610195    1.220152549489    1.339570738556
 H   -2.641083138982    1.946733350591    1.343618876419
 H   -2.976392184133   -0.597117133145    1.316932348079
NA   -0.504506833841    1.614965003861   -7.851527112601
