16

 N   -2.072686614597   -0.137134282111    1.353626812824
 C   -0.840560882330   -0.767424562119    1.354581773132
 N   -0.570419946204   -2.088310037087    1.351117584185
 C    0.757709222259   -2.306503929837    1.366685012848
 H    1.071517505229   -3.353182662327    1.370064583539
 N    1.770058665300   -1.398522972696    1.380656283123
 C    1.457841921393   -0.087701889447    1.376009879223
 N    2.465468876195    0.836796747858    1.334188042292
 H    3.396920413582    0.506266639106    1.556645976425
 H    2.232731370168    1.796767502897    1.558998287732
 C    0.092341080519    0.288991964420    1.367238791508
 N   -0.531188230672    1.527957665050    1.377117000526
 C   -1.831113717829    1.219878276689    1.368662147368
 H   -2.641167246616    1.946459077791    1.372710285231
 H   -2.976476291767   -0.597391405945    1.346023756891
NA   -0.504012739536    1.616576232495   -8.022425979969
