16

 N   -2.072770722231   -0.137408554912    1.382718221637
 C   -0.840644989964   -0.767698834920    1.383673181945
 N   -0.570504053838   -2.088584309888    1.380208992998
 C    0.757625114625   -2.306778202638    1.395776421661
 H    1.071433397595   -3.353456935128    1.399155992352
 N    1.769974557666   -1.398797245497    1.409747691936
 C    1.457757813759   -0.087976162248    1.405101288036
 N    2.465384768561    0.836522475057    1.363279451105
 H    3.396836305948    0.505992366305    1.585737385238
 H    2.232647262534    1.796493230096    1.588089696545
 C    0.092256972885    0.288717691619    1.396330200321
 N   -0.531272338306    1.527683392249    1.406208409339
 C   -1.831197825463    1.219604003888    1.397753556181
 H   -2.641251354250    1.946184804990    1.401801694044
 H   -2.976560399401   -0.597665678746    1.375115165704
NA   -0.503518645231    1.618187461130   -8.193324847338
