16

 N   -2.072812776048   -0.137545691312    1.397263926043
 C   -0.840687043781   -0.767835971320    1.398218886351
 N   -0.570546107655   -2.088721446288    1.394754697404
 C    0.757583060808   -2.306915339038    1.410322126067
 H    1.071391343778   -3.353594071528    1.413701696758
 N    1.769932503849   -1.398934381897    1.424293396342
 C    1.457715759942   -0.088113298648    1.419646992442
 N    2.465342714744    0.836385338657    1.377825155511
 H    3.396794252131    0.505855229905    1.600283089644
 H    2.232605208717    1.796356093696    1.602635400951
 C    0.092214919068    0.288580555219    1.410875904727
 N   -0.531314392123    1.527546255849    1.420754113745
 C   -1.831239879280    1.219466867488    1.412299260587
 H   -2.641293408067    1.946047668590    1.416347398450
 H   -2.976602453218   -0.597802815146    1.389660870110
NA   -0.503271598079    1.618993075448   -8.278774281022
