17

 N   -0.703718759550   -2.155536251328   -0.010402926639
 C    0.506469307294   -1.500330047652   -0.006441302671
 N    1.739881721597   -2.099007742114    0.005596982234
 C    2.710304921653   -1.208831600503   -0.006275474739
 N    2.507228084240    0.152806533011   -0.013110635081
 H    3.311055209491    0.772767072766   -0.095098657503
 N    4.035759675890   -1.627506322183   -0.084622777974
 H    4.690295881222   -1.095703097783    0.483017998756
 H    4.114564763281   -2.628206466118    0.076960560015
 C    1.247954341923    0.838840236542   -0.000156848404
 O    1.220373972818    2.067013321319   -0.004244976832
 C    0.175169215947   -0.134853152732    0.006044349536
 N   -1.195904085822    0.051477892581    0.005969164820
 C   -1.689427580333   -1.187125121464   -0.004360934845
 H   -2.746925493601   -1.441271743296   -0.007307579271
 H   -0.828815756081   -3.162119336560   -0.019062477670
RB   -1.800898287886    1.087784380714    0.013102054910
