17

 N   -0.685576249758   -2.186612913789   -0.010616827083
 C    0.524611817086   -1.531406710113   -0.006655203115
 N    1.758024231389   -2.130084404575    0.005383081790
 C    2.728447431445   -1.239908262964   -0.006489375183
 N    2.525370594032    0.121729870550   -0.013324535525
 H    3.329197719283    0.741690410305   -0.095312557947
 N    4.053902185682   -1.658582984644   -0.084836678418
 H    4.708438391014   -1.126779760244    0.482804098312
 H    4.132707273073   -2.659283128579    0.076746659571
 C    1.266096851715    0.807763574081   -0.000370748848
 O    1.238516482610    2.035936658858   -0.004458877276
 C    0.193311725739   -0.165929815193    0.005830449092
 N   -1.177761576030    0.020401230120    0.005755264376
 C   -1.671285070541   -1.218201783925   -0.004574835289
 H   -2.728782983809   -1.472348405757   -0.007521479715
 H   -0.810673246289   -3.193195999021   -0.019276378114
RB   -1.833171961599    1.143066592264    0.013482561974
