17

 N   -0.631148720382   -2.279842901173   -0.011258528415
 C    0.579039346462   -1.624636697497   -0.007296904447
 N    1.812451760765   -2.223314391959    0.004741380458
 C    2.782874960821   -1.333138250348   -0.007131076515
 N    2.579798123408    0.028499883166   -0.013966236857
 H    3.383625248659    0.648460422921   -0.095954259279
 N    4.108329715058   -1.751812972028   -0.085478379750
 H    4.762865920390   -1.220009747628    0.482162396980
 H    4.187134802449   -2.752513115963    0.076104958239
 C    1.320524381091    0.714533586697   -0.001012450180
 O    1.292944011986    1.942706671474   -0.005100578608
 C    0.247739255115   -0.259159802577    0.005188747760
 N   -1.123334046654   -0.072828757264    0.005113563044
 C   -1.616857541165   -1.311431771309   -0.005216536621
 H   -2.674355454433   -1.565578393141   -0.008163181047
 H   -0.756245716913   -3.286425986405   -0.019918079446
RB   -1.929992982739    1.308913226914    0.014624083165
