17

 N   -0.522293661630   -2.466302875939   -0.012541931077
 C    0.687894405214   -1.811096672263   -0.008580307109
 N    1.921306819517   -2.409774366725    0.003457977796
 C    2.891730019573   -1.519598225114   -0.008414479177
 N    2.688653182160   -0.157960091600   -0.015249639519
 H    3.492480307411    0.462000448155   -0.097237661941
 N    4.217184773810   -1.938272946794   -0.086761782412
 H    4.871720979142   -1.406469722394    0.480878994318
 H    4.295989861201   -2.938973090729    0.074821555577
 C    1.429379439843    0.528073611931   -0.002295852842
 O    1.401799070738    1.756246696708   -0.006383981270
 C    0.356594313867   -0.445619777343    0.003905345098
 N   -1.014478987902   -0.259288732030    0.003830160382
 C   -1.508002482413   -1.497891746075   -0.006499939283
 H   -2.565500395681   -1.752038367907   -0.009446583709
 H   -0.647390658161   -3.472885961171   -0.021201482108
RB   -2.123635025020    1.640606496215    0.016907125548
