17

 N   -0.504151151838   -2.497379538400   -0.012755831521
 C    0.706036915006   -1.842173334724   -0.008794207553
 N    1.939449329309   -2.440851029186    0.003244077352
 C    2.909872529365   -1.550674887575   -0.008628379621
 N    2.706795691952   -0.189036754061   -0.015463539963
 H    3.510622817203    0.430923785694   -0.097451562385
 N    4.235327283602   -1.969349609255   -0.086975682856
 H    4.889863488934   -1.437546384855    0.480665093874
 H    4.314132370993   -2.970049753190    0.074607655133
 C    1.447521949635    0.496996949470   -0.002509753286
 O    1.419941580530    1.725170034247   -0.006597881714
 C    0.374736823659   -0.476696439804    0.003691444654
 N   -0.996336478110   -0.290365394491    0.003616259938
 C   -1.489859972621   -1.528968408536   -0.006713839727
 H   -2.547357885889   -1.783115030368   -0.009660484153
 H   -0.629248148369   -3.503962623632   -0.021415382552
RB   -2.155908698733    1.695888707765    0.017287632612
