17

 N   -0.486008642046   -2.528456200861   -0.012969731965
 C    0.724179424798   -1.873249997185   -0.009008107997
 N    1.957591839101   -2.471927691647    0.003030176908
 C    2.928015039157   -1.581751550036   -0.008842280065
 N    2.724938201744   -0.220113416522   -0.015677440407
 H    3.528765326995    0.399847123233   -0.097665462829
 N    4.253469793394   -2.000426271716   -0.087189583300
 H    4.908005998726   -1.468623047316    0.480451193430
 H    4.332274880785   -3.001126415651    0.074393754689
 C    1.465664459427    0.465920287009   -0.002723653730
 O    1.438084090322    1.694093371786   -0.006811782158
 C    0.392879333451   -0.507773102265    0.003477544210
 N   -0.978193968318   -0.321442056952    0.003402359494
 C   -1.471717462829   -1.560045070997   -0.006927740171
 H   -2.529215376097   -1.814191692829   -0.009874384597
 H   -0.611105638577   -3.535039286093   -0.021629282996
RB   -2.188182372446    1.751170919315    0.017668139675
