17

 N   -0.413438602878   -2.652762850705   -0.013825333740
 C    0.796749463966   -1.997556647029   -0.009863709772
 N    2.030161878269   -2.596234341491    0.002174575133
 C    3.000585078325   -1.706058199880   -0.009697881840
 N    2.797508240912   -0.344420066366   -0.016533042182
 H    3.601335366163    0.275540473389   -0.098521064604
 N    4.326039832562   -2.124732921560   -0.088045185075
 H    4.980576037894   -1.592929697160    0.479595591655
 H    4.404844919953   -3.125433065495    0.073538152914
 C    1.538234498595    0.341613637165   -0.003579255505
 O    1.510654129490    1.569786721942   -0.007667383933
 C    0.465449372619   -0.632079752109    0.002621942435
 N   -0.905623929150   -0.445748706796    0.002546757719
 C   -1.399147423661   -1.684351720841   -0.007783341946
 H   -2.456645336929   -1.938498342673   -0.010729986372
 H   -0.538535599409   -3.659345935937   -0.022484884771
RB   -2.317277067300    1.972299765515    0.019190167931
