17

 N   -0.395296093086   -2.683839513166   -0.014039234184
 C    0.814891973758   -2.028633309490   -0.010077610216
 N    2.048304388061   -2.627311003952    0.001960674689
 C    3.018727588117   -1.737134862341   -0.009911782284
 N    2.815650750704   -0.375496728827   -0.016746942626
 H    3.619477875955    0.244463810928   -0.098734965048
 N    4.344182342354   -2.155809584021   -0.088259085519
 H    4.998718547686   -1.624006359621    0.479381691211
 H    4.422987429745   -3.156509727956    0.073324252470
 C    1.556377008387    0.310536974704   -0.003793155949
 O    1.528796639282    1.538710059481   -0.007881284377
 C    0.483591882411   -0.663156414570    0.002408041991
 N   -0.887481419358   -0.476825369257    0.002332857275
 C   -1.381004913869   -1.715428383302   -0.007997242390
 H   -2.438502827137   -1.969575005134   -0.010943886816
 H   -0.520393089617   -3.690422598398   -0.022698785215
RB   -2.349550741013    2.027581977065    0.019570674994
