17

 N   -0.340868563710   -2.777069500549   -0.014680935515
 C    0.869319503134   -2.121863296873   -0.010719311547
 N    2.102731917437   -2.720540991335    0.001318973358
 C    3.073155117493   -1.830364849724   -0.010553483615
 N    2.870078280080   -0.468726716210   -0.017388643957
 H    3.673905405331    0.151233823545   -0.099376666379
 N    4.398609871730   -2.249039571404   -0.088900786850
 H    5.053146077062   -1.717236347004    0.478739989880
 H    4.477414959121   -3.249739715339    0.072682551139
 C    1.610804537763    0.217306987321   -0.004434857280
 O    1.583224168658    1.445480072098   -0.008522985708
 C    0.538019411787   -0.756386401953    0.001766340660
 N   -0.833053889982   -0.570055356640    0.001691155944
 C   -1.326577384493   -1.808658370685   -0.008638943721
 H   -2.384075297761   -2.062804992517   -0.011585588147
 H   -0.465965560241   -3.783652585781   -0.023340486546
RB   -2.446371762153    2.193428611716    0.020712196186
