17

 N   -0.268298524542   -2.901376150394   -0.015536537290
 C    0.941889542302   -2.246169946718   -0.011574913322
 N    2.175301956605   -2.844847641180    0.000463371583
 C    3.145725156661   -1.954671499569   -0.011409085390
 N    2.942648319248   -0.593033366055   -0.018244245732
 H    3.746475444499    0.026927173700   -0.100232268154
 N    4.471179910898   -2.373346221249   -0.089756388625
 H    5.125716116230   -1.841542996849    0.477884388105
 H    4.549984998289   -3.374046365184    0.071826949364
 C    1.683374576931    0.093000337476   -0.005290459055
 O    1.655794207826    1.321173422253   -0.009378587483
 C    0.610589450955   -0.880693051798    0.000910738885
 N   -0.760483850814   -0.694362006485    0.000835554169
 C   -1.254007345325   -1.932965020530   -0.009494545496
 H   -2.311505258593   -2.187111642362   -0.012441189922
 H   -0.393395521073   -3.907959235626   -0.024196088321
RB   -2.575466457007    2.414557457916    0.022234224441
