17

 N   -0.195728485374   -3.025682800238   -0.016392139066
 C    1.014459581470   -2.370476596562   -0.012430515098
 N    2.247871995773   -2.969154291024   -0.000392230193
 C    3.218295195829   -2.078978149413   -0.012264687166
 N    3.015218358416   -0.717340015899   -0.019099847508
 H    3.819045483667   -0.097379476144   -0.101087869930
 N    4.543749950066   -2.497652871093   -0.090611990401
 H    5.198286155398   -1.965849646693    0.477028786329
 H    4.622555037457   -3.498353015028    0.070971347588
 C    1.755944616099   -0.031306312368   -0.006146060831
 O    1.728364246994    1.196866772409   -0.010234189259
 C    0.683159490123   -1.004999701642    0.000055137109
 N   -0.687913811646   -0.818668656329   -0.000020047607
 C   -1.181437306157   -2.057271670374   -0.010350147272
 H   -2.238935219425   -2.311418292206   -0.013296791698
 H   -0.320825481905   -4.032265885470   -0.025051690097
RB   -2.704561151860    2.635686304116    0.023756252696
