17

 N   -0.177585975582   -3.056759462699   -0.016606039509
 C    1.032602091262   -2.401553259023   -0.012644415541
 N    2.266014505565   -3.000230953485   -0.000606130636
 C    3.236437705621   -2.110054811874   -0.012478587609
 N    3.033360868208   -0.748416678360   -0.019313747951
 H    3.837187993459   -0.128456138605   -0.101301770373
 N    4.561892459858   -2.528729533554   -0.090825890844
 H    5.216428665190   -1.996926309154    0.476814885886
 H    4.640697547249   -3.529429677489    0.070757447145
 C    1.774087125891   -0.062382974829   -0.006359961274
 O    1.746506756786    1.165790109948   -0.010448089702
 C    0.701301999915   -1.036076364103   -0.000158763334
 N   -0.669771301854   -0.849745318790   -0.000233948050
 C   -1.163294796365   -2.088348332835   -0.010564047715
 H   -2.220792709633   -2.342494954667   -0.013510692141
 H   -0.302682972113   -4.063342547931   -0.025265590540
RB   -2.736834825574    2.690968515666    0.024136759759
