17

 N   -0.141300955998   -3.118912787621   -0.017033840397
 C    1.068887110846   -2.463706583945   -0.013072216429
 N    2.302299525149   -3.062384278407   -0.001033931524
 C    3.272722725205   -2.172208136796   -0.012906388497
 N    3.069645887792   -0.810570003282   -0.019741548839
 H    3.873473013043   -0.190609463527   -0.101729571261
 N    4.598177479442   -2.590882858476   -0.091253691732
 H    5.252713684774   -2.059079634076    0.476387084998
 H    4.676982566833   -3.591583002411    0.070329646257
 C    1.810372145475   -0.124536299751   -0.006787762162
 O    1.782791776370    1.103636785026   -0.010875890590
 C    0.737587019499   -1.098229689025   -0.000586564222
 N   -0.633486282270   -0.911898643712   -0.000661748938
 C   -1.127009776781   -2.150501657757   -0.010991848603
 H   -2.184507690049   -2.404648279589   -0.013938493029
 H   -0.266397952529   -4.125495872853   -0.025693391428
RB   -2.801382173001    2.801532938766    0.024897773887
