17

 N   -0.032445897247   -3.305372762387   -0.018317243060
 C    1.177742169597   -2.650166558711   -0.014355619092
 N    2.411154583900   -3.248844253173   -0.002317334187
 C    3.381577783956   -2.358668111562   -0.014189791160
 N    3.178500946543   -0.997029978048   -0.021024951502
 H    3.982328071794   -0.377069438293   -0.103012973924
 N    4.707032538193   -2.777342833242   -0.092537094395
 H    5.361568743525   -2.245539608842    0.475103682335
 H    4.785837625584   -3.778042977177    0.069046243594
 C    1.919227204226   -0.310996274517   -0.008071164825
 O    1.891646835121    0.917176810260   -0.012159293253
 C    0.846442078250   -1.284689663791   -0.001869966885
 N   -0.524631223519   -1.098358618478   -0.001945151601
 C   -1.018154718030   -2.336961632523   -0.012275251266
 H   -2.075652631298   -2.591108254355   -0.015221895692
 H   -0.157542893778   -4.311955847619   -0.026976794091
RB   -2.995024215281    3.133226208067    0.027180816269
