17

 N    0.003839122337   -3.367526087310   -0.018745043947
 C    1.214027189181   -2.712319883634   -0.014783419979
 N    2.447439603484   -3.310997578096   -0.002745135074
 C    3.417862803540   -2.420821436485   -0.014617592047
 N    3.214785966127   -1.059183302971   -0.021452752389
 H    4.018613091378   -0.439222763216   -0.103440774811
 N    4.743317557777   -2.839496158165   -0.092964895282
 H    5.397853763109   -2.307692933765    0.474675881448
 H    4.822122645168   -3.840196302100    0.068618442707
 C    1.955512223810   -0.373149599440   -0.008498965712
 O    1.927931854705    0.855023485337   -0.012587094140
 C    0.882727097834   -1.346842988714   -0.002297767772
 N   -0.488346203935   -1.160511943401   -0.002372952488
 C   -0.981869698446   -2.399114957446   -0.012703052153
 H   -2.039367611714   -2.653261579278   -0.015649696579
 H   -0.121257874194   -4.374109172542   -0.027404594978
RB   -3.059571562708    3.243790631167    0.027941830397
