17

 N    0.021981632129   -3.398602749771   -0.018958944391
 C    1.232169698973   -2.743396546095   -0.014997320423
 N    2.465582113276   -3.342074240557   -0.002959035518
 C    3.436005313332   -2.451898098946   -0.014831492491
 N    3.232928475919   -1.090259965432   -0.021666652833
 H    4.036755601170   -0.470299425677   -0.103654675255
 N    4.761460067569   -2.870572820626   -0.093178795726
 H    5.415996272901   -2.338769596226    0.474461981004
 H    4.840265154960   -3.871272964561    0.068404542263
 C    1.973654733602   -0.404226261901   -0.008712866156
 O    1.946074364497    0.823946822876   -0.012800994584
 C    0.900869607626   -1.377919651175   -0.002511668216
 N   -0.470203694143   -1.191588605862   -0.002586852932
 C   -0.963727188654   -2.430191619907   -0.012916952597
 H   -2.021225101922   -2.684338241739   -0.015863597023
 H   -0.103115364402   -4.405185835003   -0.027618495422
RB   -3.091845236421    3.299072842717    0.028322337461
