17

 N    0.058266651713   -3.460756074693   -0.019386745279
 C    1.268454718557   -2.805549871017   -0.015425121311
 N    2.501867132860   -3.404227565479   -0.003386836406
 C    3.472290332916   -2.514051423868   -0.015259293379
 N    3.269213495503   -1.152413290354   -0.022094453721
 H    4.073040620754   -0.532452750599   -0.104082476143
 N    4.797745087153   -2.932726145548   -0.093606596614
 H    5.452281292485   -2.400922921148    0.474034180116
 H    4.876550174544   -3.933426289483    0.067976741375
 C    2.009939753186   -0.466379586823   -0.009140667044
 O    1.982359384081    0.761793497954   -0.013228795472
 C    0.937154627210   -1.440072976097   -0.002939469104
 N   -0.433918674559   -1.253741930784   -0.003014653820
 C   -0.927442169070   -2.492344944829   -0.013344753485
 H   -1.984940082338   -2.746491566661   -0.016291397911
 H   -0.066830344818   -4.467339159925   -0.028046296310
RB   -3.156392583848    3.409637265817    0.029083351588
