17

 N    0.076409161505   -3.491832737154   -0.019600645723
 C    1.286597228349   -2.836626533478   -0.015639021755
 N    2.520009642652   -3.435304227940   -0.003600736850
 C    3.490432842708   -2.545128086329   -0.015473193823
 N    3.287356005295   -1.183489952815   -0.022308354165
 H    4.091183130546   -0.563529413060   -0.104296376587
 N    4.815887596945   -2.963802808009   -0.093820497058
 H    5.470423802277   -2.431999583609    0.473820279672
 H    4.894692684336   -3.964502951944    0.067762840931
 C    2.028082262978   -0.497456249284   -0.009354567488
 O    2.000501893873    0.730716835493   -0.013442695916
 C    0.955297137002   -1.471149638558   -0.003153369548
 N   -0.415776164767   -1.284818593245   -0.003228554264
 C   -0.909299659278   -2.523421607290   -0.013558653929
 H   -1.966797572546   -2.777568229122   -0.016505298355
 H   -0.048687835026   -4.498415822386   -0.028260196754
RB   -3.188666257561    3.464919477367    0.029463858652
