17

 N    0.094551671297   -3.522909399615   -0.019814546166
 C    1.304739738141   -2.867703195939   -0.015852922198
 N    2.538152152444   -3.466380890401   -0.003814637293
 C    3.508575352500   -2.576204748790   -0.015687094266
 N    3.305498515087   -1.214566615276   -0.022522254608
 H    4.109325640338   -0.594606075521   -0.104510277030
 N    4.834030106737   -2.994879470470   -0.094034397501
 H    5.488566312069   -2.463076246070    0.473606379229
 H    4.912835194128   -3.995579614405    0.067548940488
 C    2.046224772770   -0.528532911745   -0.009568467931
 O    2.018644403665    0.699640173032   -0.013656596359
 C    0.973439646794   -1.502226301019   -0.003367269991
 N   -0.397633654975   -1.315895255706   -0.003442454707
 C   -0.891157149486   -2.554498269751   -0.013772554372
 H   -1.948655062754   -2.808644891583   -0.016719198798
 H   -0.030545325234   -4.529492484847   -0.028474097197
RB   -3.220939931275    3.520201688917    0.029844365716
