17

 N    0.275976769217   -3.833676024225   -0.021953550604
 C    1.486164836061   -3.178469820549   -0.017991926636
 N    2.719577250364   -3.777147515011   -0.005953641731
 C    3.690000450420   -2.886971373400   -0.017826098704
 N    3.486923613007   -1.525333239886   -0.024661259046
 H    4.290750738258   -0.905372700131   -0.106649281468
 N    5.015455204657   -3.305646095080   -0.096173401939
 H    5.669991409989   -2.773842870680    0.471467374791
 H    5.094260292048   -4.306346239015    0.065409936050
 C    2.227649870690   -0.839299536355   -0.011707472369
 O    2.200069501585    0.388873548422   -0.015795600797
 C    1.154864744714   -1.812992925629   -0.005506274429
 N   -0.216208557055   -1.626661880316   -0.005581459145
 C   -0.709732051566   -2.865264894361   -0.015911558810
 H   -1.767229964834   -3.119411516193   -0.018858203236
 H    0.150879772686   -4.840259109457   -0.030613101635
RB   -3.543676668408    4.073023804418    0.033649436353
