17

 N    0.294119279009   -3.864752686686   -0.022167451048
 C    1.504307345853   -3.209546483010   -0.018205827080
 N    2.737719760156   -3.808224177472   -0.006167542175
 C    3.708142960212   -2.918048035861   -0.018039999148
 N    3.505066122799   -1.556409902347   -0.024875159490
 H    4.308893248050   -0.936449362592   -0.106863181912
 N    5.033597714449   -3.336722757541   -0.096387302383
 H    5.688133919781   -2.804919533141    0.471253474347
 H    5.112402801840   -4.337422901476    0.065196035606
 C    2.245792380482   -0.870376198816   -0.011921372813
 O    2.218212011377    0.357796885961   -0.016009501241
 C    1.173007254506   -1.844069588090   -0.005720174873
 N   -0.198066047263   -1.657738542777   -0.005795359589
 C   -0.691589541774   -2.896341556822   -0.016125459254
 H   -1.749087455042   -3.150488178654   -0.019072103680
 H    0.169022282478   -4.871335771918   -0.030827002079
RB   -3.575950342122    4.128306015968    0.034029943417
