17

 N    0.330404298593   -3.926906011609   -0.022595251936
 C    1.540592365437   -3.271699807933   -0.018633627968
 N    2.774004779740   -3.870377502395   -0.006595343063
 C    3.744427979796   -2.980201360784   -0.018467800036
 N    3.541351142383   -1.618563227270   -0.025302960378
 H    4.345178267634   -0.998602687515   -0.107290982800
 N    5.069882734033   -3.398876082464   -0.096815103271
 H    5.724418939365   -2.867072858064    0.470825673459
 H    5.148687821424   -4.399576226399    0.064768234718
 C    2.282077400066   -0.932529523739   -0.012349173701
 O    2.254497030961    0.295643561038   -0.016437302129
 C    1.209292274090   -1.906222913013   -0.006147975761
 N   -0.161781027679   -1.719891867700   -0.006223160477
 C   -0.655304522190   -2.958494881745   -0.016553260142
 H   -1.712802435458   -3.212641503577   -0.019499904568
 H    0.205307302062   -4.933489096841   -0.031254802967
RB   -3.640497689548    4.238870439068    0.034790957545
