17

 N    0.366689318177   -3.989059336531   -0.023023052823
 C    1.576877385021   -3.333853132855   -0.019061428855
 N    2.810289799324   -3.932530827317   -0.007023143950
 C    3.780712999380   -3.042354685706   -0.018895600923
 N    3.577636161967   -1.680716552192   -0.025730761265
 H    4.381463287218   -1.060756012437   -0.107718783687
 N    5.106167753617   -3.461029407386   -0.097242904158
 H    5.760703958949   -2.929226182986    0.470397872572
 H    5.184972841008   -4.461729551321    0.064340433831
 C    2.318362419650   -0.994682848661   -0.012776974588
 O    2.290782050545    0.233490236116   -0.016865103016
 C    1.245577293674   -1.968376237935   -0.006575776648
 N   -0.125496008095   -1.782045192622   -0.006650961364
 C   -0.619019502606   -3.020648206667   -0.016981061029
 H   -1.676517415874   -3.274794828499   -0.019927705455
 H    0.241592321646   -4.995642421763   -0.031682603854
RB   -3.705045036975    4.349434862168    0.035551971672
