17

 N    0.402974337761   -4.051212661453   -0.023450853711
 C    1.613162404605   -3.396006457777   -0.019489229743
 N    2.846574818908   -3.994684152239   -0.007450944838
 C    3.816998018964   -3.104508010628   -0.019323401811
 N    3.613921181551   -1.742869877114   -0.026158562153
 H    4.417748306802   -1.122909337359   -0.108146584575
 N    5.142452773201   -3.523182732308   -0.097670705046
 H    5.796988978533   -2.991379507908    0.469970071684
 H    5.221257860592   -4.523882876243    0.063912632943
 C    2.354647439234   -1.056836173583   -0.013204775476
 O    2.327067070129    0.171336911194   -0.017292903904
 C    1.281862313258   -2.030529562857   -0.007003577536
 N   -0.089210988511   -1.844198517544   -0.007078762252
 C   -0.582734483022   -3.082801531589   -0.017408861917
 H   -1.640232396290   -3.336948153421   -0.020355506343
 H    0.277877341230   -5.057795746685   -0.032110404742
RB   -3.769592384402    4.459999285268    0.036312985800
