17

 N    0.457401867137   -4.144442648836   -0.024092555042
 C    1.667589933981   -3.489236445160   -0.020130931074
 N    2.901002348284   -4.087914139622   -0.008092646169
 C    3.871425548340   -3.197737998011   -0.019965103142
 N    3.668348710927   -1.836099864497   -0.026800263484
 H    4.472175836178   -1.216139324742   -0.108788285906
 N    5.196880302577   -3.616412719691   -0.098312406377
 H    5.851416507909   -3.084609495291    0.469328370353
 H    5.275685389968   -4.617112863626    0.063270931612
 C    2.409074968610   -1.150066160966   -0.013846476807
 O    2.381494599505    0.078106923811   -0.017934605235
 C    1.336289842634   -2.123759550240   -0.007645278867
 N   -0.034783459135   -1.937428504927   -0.007720463583
 C   -0.528306953646   -3.176031518972   -0.018050563248
 H   -1.585804866914   -3.430178140804   -0.020997207674
 H    0.332304870606   -5.151025734068   -0.032752106073
RB   -3.866413405542    4.625845919919    0.037454506991
