17

 N    0.511829396513   -4.237672636219   -0.024734256374
 C    1.722017463357   -3.582466432543   -0.020772632406
 N    2.955429877660   -4.181144127005   -0.008734347501
 C    3.925853077716   -3.290967985394   -0.020606804474
 N    3.722776240303   -1.929329851880   -0.027441964816
 H    4.526603365554   -1.309369312125   -0.109429987238
 N    5.251307831953   -3.709642707074   -0.098954107709
 H    5.905844037285   -3.177839482674    0.468686669021
 H    5.330112919344   -4.710342851009    0.062629230280
 C    2.463502497986   -1.243296148349   -0.014488178139
 O    2.435922128881   -0.015123063572   -0.018576306567
 C    1.390717372010   -2.216989537623   -0.008286980199
 N    0.019644070241   -2.030658492310   -0.008362164915
 C   -0.473879424270   -3.269261506355   -0.018692264580
 H   -1.531377337538   -3.523408128187   -0.021638909006
 H    0.386732399982   -5.244255721451   -0.033393807405
RB   -3.963234426682    4.791692554569    0.038596028182
