17

 N    0.566256925889   -4.330902623602   -0.025375957705
 C    1.776444992733   -3.675696419926   -0.021414333737
 N    3.009857407036   -4.274374114388   -0.009376048832
 C    3.980280607092   -3.384197972777   -0.021248505805
 N    3.777203769679   -2.022559839263   -0.028083666147
 H    4.581030894930   -1.402599299508   -0.110071688569
 N    5.305735361329   -3.802872694457   -0.099595809040
 H    5.960271566661   -3.271069470057    0.468044967690
 H    5.384540448720   -4.803572838392    0.061987528949
 C    2.517930027362   -1.336526135732   -0.015129879470
 O    2.490349658257   -0.108353050955   -0.019218007898
 C    1.445144901386   -2.310219525006   -0.008928681530
 N    0.074071599617   -2.123888479693   -0.009003866246
 C   -0.419451894894   -3.362491493738   -0.019333965911
 H   -1.476949808162   -3.616638115570   -0.022280610337
 H    0.441159929358   -5.337485708834   -0.034035508736
RB   -4.060055447822    4.957539189219    0.039737549374
