17

 N    0.584399435681   -4.361979286063   -0.025589858149
 C    1.794587502525   -3.706773082387   -0.021628234181
 N    3.027999916828   -4.305450776849   -0.009589949276
 C    3.998423116884   -3.415274635238   -0.021462406249
 N    3.795346279471   -2.053636501724   -0.028297566591
 H    4.599173404722   -1.433675961969   -0.110285589013
 N    5.323877871121   -3.833949356918   -0.099809709484
 H    5.978414076453   -3.302146132518    0.467831067246
 H    5.402682958512   -4.834649500853    0.061773628505
 C    2.536072537154   -1.367602798193   -0.015343779914
 O    2.508492168049   -0.139429713416   -0.019431908342
 C    1.463287411178   -2.341296187467   -0.009142581974
 N    0.092214109409   -2.154965142154   -0.009217766690
 C   -0.401309385102   -3.393568156199   -0.019547866355
 H   -1.458807298370   -3.647714778031   -0.022494510781
 H    0.459302439150   -5.368562371295   -0.034249409180
RB   -4.092329121536    5.012821400769    0.040118056437
