17

 N    0.620684455264   -4.424132610985   -0.026017659036
 C    1.830872522108   -3.768926407309   -0.022056035068
 N    3.064284936411   -4.367604101771   -0.010017750163
 C    4.034708136467   -3.477427960160   -0.021890207136
 N    3.831631299054   -2.115789826646   -0.028725367478
 H    4.635458424305   -1.495829286891   -0.110713389900
 N    5.360162890704   -3.896102681840   -0.100237510371
 H    6.014699096036   -3.364299457440    0.467403266359
 H    5.438967978095   -4.896802825775    0.061345827618
 C    2.572357556737   -1.429756123115   -0.015771580801
 O    2.544777187632   -0.201583038338   -0.019859709229
 C    1.499572430761   -2.403449512389   -0.009570382861
 N    0.128499128992   -2.217118467076   -0.009645567577
 C   -0.365024365519   -3.455721481121   -0.019975667242
 H   -1.422522278787   -3.709868102953   -0.022922311668
 H    0.495587458733   -5.430715696217   -0.034677210067
RB   -4.156876468963    5.123385823869    0.040879070565
