17

 N    0.656969474848   -4.486285935908   -0.026445459924
 C    1.867157541692   -3.831079732232   -0.022483835956
 N    3.100569955995   -4.429757426694   -0.010445551051
 C    4.070993156051   -3.539581285083   -0.022318008024
 N    3.867916318638   -2.177943151569   -0.029153168366
 H    4.671743443889   -1.557982611814   -0.111141190788
 N    5.396447910288   -3.958256006763   -0.100665311259
 H    6.050984115620   -3.426452782363    0.466975465471
 H    5.475252997679   -4.958956150698    0.060918026730
 C    2.608642576321   -1.491909448038   -0.016199381689
 O    2.581062207216   -0.263736363261   -0.020287510117
 C    1.535857450345   -2.465602837312   -0.009998183749
 N    0.164784148576   -2.279271791999   -0.010073368465
 C   -0.328739345935   -3.517874806044   -0.020403468130
 H   -1.386237259203   -3.772021427876   -0.023350112556
 H    0.531872478317   -5.492869021140   -0.035105010955
RB   -4.221423816389    5.233950246969    0.041640084692
