17

 N    0.675111984640   -4.517362598369   -0.026659360368
 C    1.885300051484   -3.862156394693   -0.022697736400
 N    3.118712465787   -4.460834089155   -0.010659451495
 C    4.089135665843   -3.570657947544   -0.022531908468
 N    3.886058828430   -2.209019814030   -0.029367068810
 H    4.689885953681   -1.589059274275   -0.111355091232
 N    5.414590420080   -3.989332669224   -0.100879211703
 H    6.069126625412   -3.457529444824    0.466761565027
 H    5.493395507471   -4.990032813159    0.060704126286
 C    2.626785086113   -1.522986110499   -0.016413282133
 O    2.599204717008   -0.294813025722   -0.020501410561
 C    1.553999960137   -2.496679499773   -0.010212084193
 N    0.182926658368   -2.310348454460   -0.010287268909
 C   -0.310596836143   -3.548951468505   -0.020617368574
 H   -1.368094749411   -3.803098090337   -0.023564013000
 H    0.550014988109   -5.523945683601   -0.035318911399
RB   -4.253697490103    5.289232458519    0.042020591756
