17

 N    0.693254494432   -4.548439260830   -0.026873260812
 C    1.903442561276   -3.893233057154   -0.022911636844
 N    3.136854975579   -4.491910751616   -0.010873351939
 C    4.107278175635   -3.601734610005   -0.022745808912
 N    3.904201338222   -2.240096476491   -0.029580969254
 H    4.708028463473   -1.620135936736   -0.111568991676
 N    5.432732929872   -4.020409331685   -0.101093112147
 H    6.087269135204   -3.488606107285    0.466547664583
 H    5.511538017263   -5.021109475620    0.060490225842
 C    2.644927595905   -1.554062772960   -0.016627182577
 O    2.617347226800   -0.325889688183   -0.020715311005
 C    1.572142469929   -2.527756162234   -0.010425984637
 N    0.201069168160   -2.341425116921   -0.010501169353
 C   -0.292454326351   -3.580028130966   -0.020831269018
 H   -1.349952239619   -3.834174752798   -0.023777913444
 H    0.568157497901   -5.555022346062   -0.035532811843
RB   -4.285971163816    5.344514670070    0.042401098820
