17

 N    0.711397004224   -4.579515923291   -0.027087161255
 C    1.921585071068   -3.924309719615   -0.023125537287
 N    3.154997485371   -4.522987414077   -0.011087252382
 C    4.125420685427   -3.632811272466   -0.022959709355
 N    3.922343848014   -2.271173138952   -0.029794869697
 H    4.726170973265   -1.651212599197   -0.111782892119
 N    5.450875439664   -4.051485994146   -0.101307012590
 H    6.105411644996   -3.519682769746    0.466333764140
 H    5.529680527055   -5.052186138081    0.060276325399
 C    2.663070105697   -1.585139435421   -0.016841083020
 O    2.635489736592   -0.356966350644   -0.020929211448
 C    1.590284979721   -2.558832824695   -0.010639885080
 N    0.219211677952   -2.372501779382   -0.010715069796
 C   -0.274311816559   -3.611104793427   -0.021045169461
 H   -1.331809729827   -3.865251415259   -0.023991813887
 H    0.586300007693   -5.586099008523   -0.035746712286
RB   -4.318244837529    5.399796881620    0.042781605884
