17

 N    0.747682023808   -4.641669248213   -0.027514962143
 C    1.957870090652   -3.986463044537   -0.023553338175
 N    3.191282504955   -4.585140738999   -0.011515053270
 C    4.161705705011   -3.694964597388   -0.023387510243
 N    3.958628867598   -2.333326463874   -0.030222670585
 H    4.762455992849   -1.713365924119   -0.112210693007
 N    5.487160459248   -4.113639319068   -0.101734813478
 H    6.141696664580   -3.581836094668    0.465905963252
 H    5.565965546639   -5.114339463003    0.059848524511
 C    2.699355125281   -1.647292760343   -0.017268883908
 O    2.671774756176   -0.419119675566   -0.021357012336
 C    1.626569999305   -2.620986149617   -0.011067685968
 N    0.255496697536   -2.434655104304   -0.011142870684
 C   -0.238026796975   -3.673258118349   -0.021472970349
 H   -1.295524710243   -3.927404740181   -0.024419614775
 H    0.622585027277   -5.648252333445   -0.036174513174
RB   -4.382792184956    5.510361304720    0.043542620011
