17

 N    0.802109553184   -4.734899235596   -0.028156663474
 C    2.012297620028   -4.079693031920   -0.024195039506
 N    3.245710034331   -4.678370726382   -0.012156754601
 C    4.216133234387   -3.788194584771   -0.024029211574
 N    4.013056396974   -2.426556451257   -0.030864371916
 H    4.816883522225   -1.806595911502   -0.112852394338
 N    5.541587988624   -4.206869306451   -0.102376514809
 H    6.196124193956   -3.675066082051    0.465264261921
 H    5.620393076015   -5.207569450386    0.059206823180
 C    2.753782654657   -1.740522747726   -0.017910585239
 O    2.726202285552   -0.512349662949   -0.021998713667
 C    1.680997528681   -2.714216137000   -0.011709387299
 N    0.309924226912   -2.527885091687   -0.011784572015
 C   -0.183599267599   -3.766488105732   -0.022114671680
 H   -1.241097180867   -4.020634727564   -0.025061316106
 H    0.677012556653   -5.741482320828   -0.036816214505
RB   -4.479613206096    5.676207939370    0.044684141202
