17

 N    0.820252062976   -4.765975898057   -0.028370563918
 C    2.030440129820   -4.110769694381   -0.024408939950
 N    3.263852544123   -4.709447388843   -0.012370655045
 C    4.234275744179   -3.819271247232   -0.024243112018
 N    4.031198906766   -2.457633113718   -0.031078272360
 H    4.835026032017   -1.837672573963   -0.113066294782
 N    5.559730498416   -4.237945968912   -0.102590415253
 H    6.214266703748   -3.706142744512    0.465050361477
 H    5.638535585807   -5.238646112847    0.058992922736
 C    2.771925164449   -1.771599410187   -0.018124485683
 O    2.744344795344   -0.543426325410   -0.022212614111
 C    1.699140038473   -2.745292799461   -0.011923287743
 N    0.328066736704   -2.558961754148   -0.011998472459
 C   -0.165456757807   -3.797564768193   -0.022328572124
 H   -1.222954671075   -4.051711390025   -0.025275216550
 H    0.695155066445   -5.772558983289   -0.037030114949
RB   -4.511886879810    5.731490150920    0.045064648266
