17

 N    0.838394572768   -4.797052560518   -0.028584464362
 C    2.048582639612   -4.141846356842   -0.024622840394
 N    3.281995053915   -4.740524051304   -0.012584555489
 C    4.252418253971   -3.850347909693   -0.024457012462
 N    4.049341416558   -2.488709776179   -0.031292172804
 H    4.853168541809   -1.868749236424   -0.113280195226
 N    5.577873008208   -4.269022631373   -0.102804315697
 H    6.232409213540   -3.737219406973    0.464836461033
 H    5.656678095599   -5.269722775308    0.058779022292
 C    2.790067674241   -1.802676072648   -0.018338386127
 O    2.762487305136   -0.574502987871   -0.022426514555
 C    1.717282548265   -2.776369461922   -0.012137188187
 N    0.346209246496   -2.590038416609   -0.012212372903
 C   -0.147314248015   -3.828641430654   -0.022542472568
 H   -1.204812161283   -4.082788052486   -0.025489116994
 H    0.713297576237   -5.803635645750   -0.037244015393
RB   -4.544160553523    5.786772362470    0.045445155330
