12

 C   -1.079164264121    1.601797945686   -0.097608789089
 C    0.033177735879    0.582319945686   -0.097608789089
 O   -0.471153264121   -0.684133054314   -0.097608789089
 C    0.543312735879   -1.717872054314   -0.097608789089
 O    1.230817735879    0.826812945686   -0.097608789089
 H   -0.646594264121    2.608807945686   -0.097608789089
 H   -1.711501264121    1.459225945686    0.791006210911
 H   -1.711501264121    1.459225945686   -0.986223789089
 H   -0.010784264121   -2.662996054314   -0.097608789089
 H    1.173107735879   -1.631573054314    0.798581210911
 H    1.173107735879   -1.631573054314   -0.993798789089
LI   -0.622996754508   -1.065435500387    1.030022355854
