12

 C   -1.078068954772    1.604548436557   -0.105742854846
 C    0.034273045228    0.585070436557   -0.105742854846
 O   -0.470057954772   -0.681382563443   -0.105742854846
 C    0.544408045228   -1.715121563443   -0.105742854846
 O    1.231913045228    0.829563436557   -0.105742854846
 H   -0.645498954772    2.611558436557   -0.105742854846
 H   -1.710405954772    1.461976436557    0.782872145154
 H   -1.710405954772    1.461976436557   -0.994357854846
 H   -0.009688954772   -2.660245563443   -0.105742854846
 H    1.174203045228   -1.628822563443    0.790447145154
 H    1.174203045228   -1.628822563443   -1.001932854846
LI   -0.634555069357   -1.094460213356    1.115857552175
