12

 C   -1.076973645422    1.607298927428   -0.113876920604
 C    0.035368354578    0.587820927428   -0.113876920604
 O   -0.468962645422   -0.678632072572   -0.113876920604
 C    0.545503354578   -1.712371072572   -0.113876920604
 O    1.233008354578    0.832313927428   -0.113876920604
 H   -0.644403645422    2.614308927428   -0.113876920604
 H   -1.709310645422    1.464726927428    0.774738079396
 H   -1.709310645422    1.464726927428   -1.002491920604
 H   -0.008593645422   -2.657495072572   -0.113876920604
 H    1.175298354578   -1.626072072572    0.782313079396
 H    1.175298354578   -1.626072072572   -1.010066920604
LI   -0.646113384207   -1.123484926324    1.201692748497
