12

 C   -1.069306479977    1.626552363524   -0.170815380906
 C    0.043035520023    0.607074363524   -0.170815380906
 O   -0.461295479977   -0.659378636476   -0.170815380906
 C    0.553170520023   -1.693117636476   -0.170815380906
 O    1.240675520023    0.851567363524   -0.170815380906
 H   -0.636736479977    2.633562363524   -0.170815380906
 H   -1.701643479977    1.483980363524    0.717799619094
 H   -1.701643479977    1.483980363524   -1.059430380906
 H   -0.000926479977   -2.638241636476   -0.170815380906
 H    1.182965520023   -1.606818636476    0.725374619094
 H    1.182965520023   -1.606818636476   -1.067005380906
LI   -0.727021588154   -1.326657917105    1.802539122745
