12

 C   -1.067115861278    1.632053345265   -0.187083512420
 C    0.045226138722    0.612575345265   -0.187083512420
 O   -0.459104861278   -0.653877654735   -0.187083512420
 C    0.555361138722   -1.687616654735   -0.187083512420
 O    1.242866138722    0.857068345265   -0.187083512420
 H   -0.634545861278    2.639063345265   -0.187083512420
 H   -1.699452861278    1.489481345265    0.701531487580
 H   -1.699452861278    1.489481345265   -1.075698512420
 H    0.001264138722   -2.632740654735   -0.187083512420
 H    1.185156138722   -1.601317654735    0.709106487580
 H    1.185156138722   -1.601317654735   -1.083273512420
LI   -0.750138217853   -1.384707343042    1.974209515387
