12

 C   -1.066020551929    1.634803836136   -0.195217578178
 C    0.046321448071    0.615325836136   -0.195217578178
 O   -0.458009551929   -0.651127163864   -0.195217578178
 C    0.556456448071   -1.684866163864   -0.195217578178
 O    1.243961448071    0.859818836136   -0.195217578178
 H   -0.633450551929    2.641813836136   -0.195217578178
 H   -1.698357551929    1.492231836136    0.693397421822
 H   -1.698357551929    1.492231836136   -1.083832578178
 H    0.002359448071   -2.629990163864   -0.195217578178
 H    1.186251448071   -1.598567163864    0.700972421822
 H    1.186251448071   -1.598567163864   -1.091407578178
LI   -0.761696532702   -1.413732056011    2.060044711708
