12

 C   -1.051781530388    1.670560217457   -0.300960433024
 C    0.060560469612    0.651082217457   -0.300960433024
 O   -0.443770530388   -0.615370782543   -0.300960433024
 C    0.570695469612   -1.649109782543   -0.300960433024
 O    1.258200469612    0.895575217457   -0.300960433024
 H   -0.619211530388    2.677570217457   -0.300960433024
 H   -1.684118530388    1.527988217457    0.587654566976
 H   -1.684118530388    1.527988217457   -1.189575433024
 H    0.016598469612   -2.594233782543   -0.300960433024
 H    1.200490469612   -1.562810782543    0.595229566976
 H    1.200490469612   -1.562810782543   -1.197150433024
LI   -0.911954625747   -1.791053324603    3.175902263884
