12

 C   -1.046304983641    1.684312671811   -0.341630761811
 C    0.066037016359    0.664834671811   -0.341630761811
 O   -0.438293983641   -0.601618328189   -0.341630761811
 C    0.576172016359   -1.635357328189   -0.341630761811
 O    1.263677016359    0.909327671811   -0.341630761811
 H   -0.613734983641    2.691322671811   -0.341630761811
 H   -1.678641983641    1.541740671811    0.546984238189
 H   -1.678641983641    1.541740671811   -1.230245761811
 H    0.022075016359   -2.580481328189   -0.341630761811
 H    1.205967016359   -1.549058328189    0.554559238189
 H    1.205967016359   -1.549058328189   -1.237820761811
LI   -0.969746199995   -1.936176889446    3.605078245490
