12

 C   -1.044114364943    1.689813653552   -0.357898893326
 C    0.068227635057    0.670335653552   -0.357898893326
 O   -0.436103364943   -0.596117346448   -0.357898893326
 C    0.578362635057   -1.629856346448   -0.357898893326
 O    1.265867635057    0.914828653552   -0.357898893326
 H   -0.611544364943    2.696823653552   -0.357898893326
 H   -1.676451364943    1.547241653552    0.530716106674
 H   -1.676451364943    1.547241653552   -1.246513893326
 H    0.024265635057   -2.574980346448   -0.357898893326
 H    1.208157635057   -1.543557346448    0.538291106674
 H    1.208157635057   -1.543557346448   -1.254088893326
LI   -0.992862829694   -1.994226315383    3.776748638132
