12

 C   -1.043019055593    1.692564144423   -0.366032959083
 C    0.069322944407    0.673086144423   -0.366032959083
 O   -0.435008055593   -0.593366855577   -0.366032959083
 C    0.579457944407   -1.627105855577   -0.366032959083
 O    1.266962944407    0.917579144423   -0.366032959083
 H   -0.610449055593    2.699574144423   -0.366032959083
 H   -1.675356055593    1.549992144423    0.522582040917
 H   -1.675356055593    1.549992144423   -1.254647959083
 H    0.025360944407   -2.572229855577   -0.366032959083
 H    1.209252944407   -1.540806855577    0.530157040917
 H    1.209252944407   -1.540806855577   -1.262222959083
LI   -1.004421144543   -2.023251028352    3.862583834453
