12

 C   -1.038637818196    1.703566107907   -0.398569222113
 C    0.073704181804    0.684088107907   -0.398569222113
 O   -0.430626818196   -0.582364892093   -0.398569222113
 C    0.583839181804   -1.616103892093   -0.398569222113
 O    1.271344181804    0.928581107907   -0.398569222113
 H   -0.606067818196    2.710576107907   -0.398569222113
 H   -1.670974818196    1.560994107907    0.490045777887
 H   -1.670974818196    1.560994107907   -1.287184222113
 H    0.029742181804   -2.561227892093   -0.398569222113
 H    1.213634181804   -1.529804892093    0.497620777887
 H    1.213634181804   -1.529804892093   -1.294759222113
LI   -1.050654403942   -2.139349880226    4.205924619738
