12

 C   -1.036447199498    1.709067089648   -0.414837353628
 C    0.075894800502    0.689589089648   -0.414837353628
 O   -0.428436199498   -0.576863910352   -0.414837353628
 C    0.586029800502   -1.610602910352   -0.414837353628
 O    1.273534800502    0.934082089648   -0.414837353628
 H   -0.603877199498    2.716077089648   -0.414837353628
 H   -1.668784199498    1.566495089648    0.473777646372
 H   -1.668784199498    1.566495089648   -1.303452353628
 H    0.031932800502   -2.555726910352   -0.414837353628
 H    1.215824800502   -1.524303910352    0.481352646372
 H    1.215824800502   -1.524303910352   -1.311027353628
LI   -1.073771033641   -2.197399306164    4.377595012380
