12

 C   -1.034256580799    1.714568071390   -0.431105485143
 C    0.078085419201    0.695090071390   -0.431105485143
 O   -0.426245580799   -0.571362928610   -0.431105485143
 C    0.588220419201   -1.605101928610   -0.431105485143
 O    1.275725419201    0.939583071390   -0.431105485143
 H   -0.601686580799    2.721578071390   -0.431105485143
 H   -1.666593580799    1.571996071390    0.457509514857
 H   -1.666593580799    1.571996071390   -1.319720485143
 H    0.034123419201   -2.550225928610   -0.431105485143
 H    1.218015419201   -1.518802928610    0.465084514857
 H    1.218015419201   -1.518802928610   -1.327295485143
LI   -1.096887663340   -2.255448732101    4.549265405023
