12

 C   -1.032065962100    1.720069053132   -0.447373616657
 C    0.080276037900    0.700591053132   -0.447373616657
 O   -0.424054962100   -0.565861946868   -0.447373616657
 C    0.590411037900   -1.599600946868   -0.447373616657
 O    1.277916037900    0.945084053132   -0.447373616657
 H   -0.599495962100    2.727079053132   -0.447373616657
 H   -1.664402962100    1.577497053132    0.441241383343
 H   -1.664402962100    1.577497053132   -1.335988616657
 H    0.036314037900   -2.544724946868   -0.447373616657
 H    1.220206037900   -1.513301946868    0.448816383343
 H    1.220206037900   -1.513301946868   -1.343563616657
LI   -1.120004293039   -2.313498158038    4.720935797665
