12

 C   -1.029875343402    1.725570034873   -0.463641748172
 C    0.082466656598    0.706092034873   -0.463641748172
 O   -0.421864343402   -0.560360965127   -0.463641748172
 C    0.592601656598   -1.594099965127   -0.463641748172
 O    1.280106656598    0.950585034873   -0.463641748172
 H   -0.597305343402    2.732580034873   -0.463641748172
 H   -1.662212343402    1.582998034873    0.424973251828
 H   -1.662212343402    1.582998034873   -1.352256748172
 H    0.038504656598   -2.539223965127   -0.463641748172
 H    1.222396656598   -1.507800965127    0.432548251828
 H    1.222396656598   -1.507800965127   -1.359831748172
LI   -1.143120922738   -2.371547583975    4.892606190308
