12

 C   -1.026589415354    1.733821507486   -0.488043945444
 C    0.085752584646    0.714343507486   -0.488043945444
 O   -0.418578415354   -0.552109492514   -0.488043945444
 C    0.595887584646   -1.585848492514   -0.488043945444
 O    1.283392584646    0.958836507486   -0.488043945444
 H   -0.594019415354    2.740831507486   -0.488043945444
 H   -1.658926415354    1.591249507486    0.400571054556
 H   -1.658926415354    1.591249507486   -1.376658945444
 H    0.041790584646   -2.530972492514   -0.488043945444
 H    1.225682584646   -1.499549492514    0.408146054556
 H    1.225682584646   -1.499549492514   -1.384233945444
LI   -1.177795867287   -2.458621722881    5.150111779271
