12

 C   -1.020017559258    1.750324452711   -0.536848339989
 C    0.092324440742    0.730846452711   -0.536848339989
 O   -0.412006559258   -0.535606547289   -0.536848339989
 C    0.602459440742   -1.569345547289   -0.536848339989
 O    1.289964440742    0.975339452711   -0.536848339989
 H   -0.587447559258    2.757334452711   -0.536848339989
 H   -1.652354559258    1.607752452711    0.351766660011
 H   -1.652354559258    1.607752452711   -1.425463339989
 H    0.048362440742   -2.514469547289   -0.536848339989
 H    1.232254440742   -1.483046547289    0.359341660011
 H    1.232254440742   -1.483046547289   -1.433038339989
LI   -1.247145756384   -2.632770000693    5.665122957198
