12

 C   -1.018922249908    1.753074943581   -0.544982405746
 C    0.093419750092    0.733596943581   -0.544982405746
 O   -0.410911249908   -0.532856056419   -0.544982405746
 C    0.603554750092   -1.566595056419   -0.544982405746
 O    1.291059750092    0.978089943581   -0.544982405746
 H   -0.586352249908    2.760084943581   -0.544982405746
 H   -1.651259249908    1.610502943581    0.343632594254
 H   -1.651259249908    1.610502943581   -1.433597405746
 H    0.049457750092   -2.511719056419   -0.544982405746
 H    1.233349750092   -1.480296056419    0.351207594254
 H    1.233349750092   -1.480296056419   -1.441172405746
LI   -1.258704071234   -2.661794713662    5.750958153519
