12

 C   -1.014541012511    1.764076907065   -0.577518668776
 C    0.097800987489    0.744598907065   -0.577518668776
 O   -0.406530012511   -0.521854092935   -0.577518668776
 C    0.607935987489   -1.555593092935   -0.577518668776
 O    1.295440987489    0.989091907065   -0.577518668776
 H   -0.581971012511    2.771086907065   -0.577518668776
 H   -1.646878012511    1.621504907065    0.311096331224
 H   -1.646878012511    1.621504907065   -1.466133668776
 H    0.053838987489   -2.500717092935   -0.577518668776
 H    1.237730987489   -1.469294092935    0.318671331224
 H    1.237730987489   -1.469294092935   -1.473708668776
LI   -1.304937330632   -2.777893565536    6.094298938804
