12

 C   -1.013445703162    1.766827397935   -0.585652734533
 C    0.098896296838    0.747349397935   -0.585652734533
 O   -0.405434703162   -0.519103602065   -0.585652734533
 C    0.609031296838   -1.552842602065   -0.585652734533
 O    1.296536296838    0.991842397935   -0.585652734533
 H   -0.580875703162    2.773837397935   -0.585652734533
 H   -1.645782703162    1.624255397935    0.302962265467
 H   -1.645782703162    1.624255397935   -1.474267734533
 H    0.054934296838   -2.497966602065   -0.585652734533
 H    1.238826296838   -1.466543602065    0.310537265467
 H    1.238826296838   -1.466543602065   -1.481842734533
LI   -1.316495645482   -2.806918278505    6.180134135125
