12

 C   -1.012350393813    1.769577888806   -0.593786800291
 C    0.099991606187    0.750099888806   -0.593786800291
 O   -0.404339393813   -0.516353111194   -0.593786800291
 C    0.610126606187   -1.550092111194   -0.593786800291
 O    1.297631606187    0.994592888806   -0.593786800291
 H   -0.579780393813    2.776587888806   -0.593786800291
 H   -1.644687393813    1.627005888806    0.294828199709
 H   -1.644687393813    1.627005888806   -1.482401800291
 H    0.056029606187   -2.495216111194   -0.593786800291
 H    1.239921606187   -1.463793111194    0.302403199709
 H    1.239921606187   -1.463793111194   -1.489976800291
LI   -1.328053960331   -2.835942991473    6.265969331447
