12

 C   -1.009064465765    1.777829361419   -0.618188997563
 C    0.103277534235    0.758351361419   -0.618188997563
 O   -0.401053465765   -0.508101638581   -0.618188997563
 C    0.613412534235   -1.541840638581   -0.618188997563
 O    1.300917534235    1.002844361419   -0.618188997563
 H   -0.576494465765    2.784839361419   -0.618188997563
 H   -1.641401465765    1.635257361419    0.270426002437
 H   -1.641401465765    1.635257361419   -1.506803997563
 H    0.059315534235   -2.486964638581   -0.618188997563
 H    1.243207534235   -1.455541638581    0.278001002437
 H    1.243207534235   -1.455541638581   -1.514378997563
LI   -1.362728904880   -2.923017130379    6.523474920410
