12

 C   -1.007969156415    1.780579852290   -0.626323063320
 C    0.104372843585    0.761101852290   -0.626323063320
 O   -0.399958156415   -0.505351147710   -0.626323063320
 C    0.614507843585   -1.539090147710   -0.626323063320
 O    1.302012843585    1.005594852290   -0.626323063320
 H   -0.575399156415    2.787589852290   -0.626323063320
 H   -1.640306156415    1.638007852290    0.262291936680
 H   -1.640306156415    1.638007852290   -1.514938063320
 H    0.060410843585   -2.484214147710   -0.626323063320
 H    1.244302843585   -1.452791147710    0.269866936680
 H    1.244302843585   -1.452791147710   -1.522513063320
LI   -1.374287219730   -2.952041843348    6.609310116731
