12

 C   -1.006873847066    1.783330343160   -0.634457129078
 C    0.105468152934    0.763852343160   -0.634457129078
 O   -0.398862847066   -0.502600656840   -0.634457129078
 C    0.615603152934   -1.536339656840   -0.634457129078
 O    1.303108152934    1.008345343160   -0.634457129078
 H   -0.574303847066    2.790340343160   -0.634457129078
 H   -1.639210847066    1.640758343160    0.254157870922
 H   -1.639210847066    1.640758343160   -1.523072129078
 H    0.061506152934   -2.481463656840   -0.634457129078
 H    1.245398152934   -1.450040656840    0.261732870922
 H    1.245398152934   -1.450040656840   -1.530647129078
LI   -1.385845534579   -2.981066556317    6.695145313052
