12

 C   -1.003587919018    1.791581815773   -0.658859326350
 C    0.108754080982    0.772103815773   -0.658859326350
 O   -0.395576919018   -0.494349184227   -0.658859326350
 C    0.618889080982   -1.528088184227   -0.658859326350
 O    1.306394080982    1.016596815773   -0.658859326350
 H   -0.571017919018    2.798591815773   -0.658859326350
 H   -1.635924919018    1.649009815773    0.229755673650
 H   -1.635924919018    1.649009815773   -1.547474326350
 H    0.064792080982   -2.473212184227   -0.658859326350
 H    1.248684080982   -1.441789184227    0.237330673650
 H    1.248684080982   -1.441789184227   -1.555049326350
LI   -1.420520479128   -3.068140695222    6.952650902016
