12

 C   -1.002492609669    1.794332306644   -0.666993392107
 C    0.109849390331    0.774854306644   -0.666993392107
 O   -0.394481609669   -0.491598693356   -0.666993392107
 C    0.619984390331   -1.525337693356   -0.666993392107
 O    1.307489390331    1.019347306644   -0.666993392107
 H   -0.569922609669    2.801342306644   -0.666993392107
 H   -1.634829609669    1.651760306644    0.221621607893
 H   -1.634829609669    1.651760306644   -1.555608392107
 H    0.065887390331   -2.470461693356   -0.666993392107
 H    1.249779390331   -1.439038693356    0.229196607893
 H    1.249779390331   -1.439038693356   -1.563183392107
LI   -1.432078793977   -3.097165408191    7.038486098337
