12

 C   -1.001397300319    1.797082797515   -0.675127457865
 C    0.110944699681    0.777604797515   -0.675127457865
 O   -0.393386300319   -0.488848202485   -0.675127457865
 C    0.621079699681   -1.522587202485   -0.675127457865
 O    1.308584699681    1.022097797515   -0.675127457865
 H   -0.568827300319    2.804092797515   -0.675127457865
 H   -1.633734300319    1.654510797515    0.213487542135
 H   -1.633734300319    1.654510797515   -1.563742457865
 H    0.066982699681   -2.467711202485   -0.675127457865
 H    1.250874699681   -1.436288202485    0.221062542135
 H    1.250874699681   -1.436288202485   -1.571317457865
LI   -1.443637108827   -3.126190121160    7.124321294658
