12

 C   -1.000301990970    1.799833288385   -0.683261523622
 C    0.112040009030    0.780355288385   -0.683261523622
 O   -0.392290990970   -0.486097711615   -0.683261523622
 C    0.622175009030   -1.519836711615   -0.683261523622
 O    1.309680009030    1.024848288385   -0.683261523622
 H   -0.567731990970    2.806843288385   -0.683261523622
 H   -1.632638990970    1.657261288385    0.205353476378
 H   -1.632638990970    1.657261288385   -1.571876523622
 H    0.068078009030   -2.464960711615   -0.683261523622
 H    1.251970009030   -1.433537711615    0.212928476378
 H    1.251970009030   -1.433537711615   -1.579451523622
LI   -1.455195423677   -3.155214834128    7.210156490980
