12

 C   -0.995920753573    1.810835251869   -0.715797786652
 C    0.116421246427    0.791357251869   -0.715797786652
 O   -0.387909753573   -0.475095748131   -0.715797786652
 C    0.626556246427   -1.508834748131   -0.715797786652
 O    1.314061246427    1.035850251869   -0.715797786652
 H   -0.563350753573    2.817845251869   -0.715797786652
 H   -1.628257753573    1.668263251869    0.172817213348
 H   -1.628257753573    1.668263251869   -1.604412786652
 H    0.072459246427   -2.453958748131   -0.715797786652
 H    1.256351246427   -1.422535748131    0.180392213348
 H    1.256351246427   -1.422535748131   -1.611987786652
LI   -1.501428683075   -3.271313686003    7.553497276264
