12

 C   -0.994825444223    1.813585742739   -0.723931852409
 C    0.117516555777    0.794107742739   -0.723931852409
 O   -0.386814444223   -0.472345257261   -0.723931852409
 C    0.627651555777   -1.506084257261   -0.723931852409
 O    1.315156555777    1.038600742739   -0.723931852409
 H   -0.562255444223    2.820595742739   -0.723931852409
 H   -1.627162444223    1.671013742739    0.164683147591
 H   -1.627162444223    1.671013742739   -1.612546852409
 H    0.073554555777   -2.451208257261   -0.723931852409
 H    1.257446555777   -1.419785257261    0.172258147591
 H    1.257446555777   -1.419785257261   -1.620121852409
LI   -1.512986997924   -3.300338398971    7.639332472585
