12

 C   -0.992634825525    1.819086724481   -0.740199983924
 C    0.119707174475    0.799608724481   -0.740199983924
 O   -0.384623825525   -0.466844275519   -0.740199983924
 C    0.629842174475   -1.500583275519   -0.740199983924
 O    1.317347174475    1.044101724481   -0.740199983924
 H   -0.560064825525    2.826096724481   -0.740199983924
 H   -1.624971825525    1.676514724481    0.148415016076
 H   -1.624971825525    1.676514724481   -1.628814983924
 H    0.075745174475   -2.445707275519   -0.740199983924
 H    1.259637174475   -1.414284275519    0.155990016076
 H    1.259637174475   -1.414284275519   -1.636389983924
LI   -1.536103627624   -3.358387824909    7.811002865228
