12

 C   -0.991539516176    1.821837215352   -0.748334049681
 C    0.120802483824    0.802359215352   -0.748334049681
 O   -0.383528516176   -0.464093784648   -0.748334049681
 C    0.630937483824   -1.497832784648   -0.748334049681
 O    1.318442483824    1.046852215352   -0.748334049681
 H   -0.558969516176    2.828847215352   -0.748334049681
 H   -1.623876516176    1.679265215352    0.140280950319
 H   -1.623876516176    1.679265215352   -1.636949049681
 H    0.076840483824   -2.442956784648   -0.748334049681
 H    1.260732483824   -1.411533784648    0.147855950319
 H    1.260732483824   -1.411533784648   -1.644524049681
LI   -1.547661942473   -3.387412537877    7.896838061549
