12

 C   -0.990444206826    1.824587706223   -0.756468115439
 C    0.121897793174    0.805109706223   -0.756468115439
 O   -0.382433206826   -0.461343293777   -0.756468115439
 C    0.632032793174   -1.495082293777   -0.756468115439
 O    1.319537793174    1.049602706223   -0.756468115439
 H   -0.557874206826    2.831597706223   -0.756468115439
 H   -1.622781206826    1.682015706223    0.132146884561
 H   -1.622781206826    1.682015706223   -1.645083115439
 H    0.077935793174   -2.440206293777   -0.756468115439
 H    1.261827793174   -1.408783293777    0.139721884561
 H    1.261827793174   -1.408783293777   -1.652658115439
LI   -1.559220257323   -3.416437250846    7.982673257870
