12

 C   -0.989348897477    1.827338197094   -0.764602181196
 C    0.122993102523    0.807860197094   -0.764602181196
 O   -0.381337897477   -0.458592802906   -0.764602181196
 C    0.633128102523   -1.492331802906   -0.764602181196
 O    1.320633102523    1.052353197094   -0.764602181196
 H   -0.556778897477    2.834348197094   -0.764602181196
 H   -1.621685897477    1.684766197094    0.124012818804
 H   -1.621685897477    1.684766197094   -1.653217181196
 H    0.079031102523   -2.437455802906   -0.764602181196
 H    1.262923102523   -1.406032802906    0.131587818804
 H    1.262923102523   -1.406032802906   -1.660792181196
LI   -1.570778572172   -3.445461963815    8.068508454191
