12

 C   -0.988253588128    1.830088687964   -0.772736246954
 C    0.124088411872    0.810610687964   -0.772736246954
 O   -0.380242588128   -0.455842312036   -0.772736246954
 C    0.634223411872   -1.489581312036   -0.772736246954
 O    1.321728411872    1.055103687964   -0.772736246954
 H   -0.555683588128    2.837098687964   -0.772736246954
 H   -1.620590588128    1.687516687964    0.115878753046
 H   -1.620590588128    1.687516687964   -1.661351246954
 H    0.080126411872   -2.434705312036   -0.772736246954
 H    1.264018411872   -1.403282312036    0.123453753046
 H    1.264018411872   -1.403282312036   -1.668926246954
LI   -1.582336887022   -3.474486676783    8.154343650513
