12

 C   -0.986062969429    1.835589669706   -0.789004378468
 C    0.126279030571    0.816111669706   -0.789004378468
 O   -0.378051969429   -0.450341330294   -0.789004378468
 C    0.636414030571   -1.484080330294   -0.789004378468
 O    1.323919030571    1.060604669706   -0.789004378468
 H   -0.553492969429    2.842599669706   -0.789004378468
 H   -1.618399969429    1.693017669706    0.099610621532
 H   -1.618399969429    1.693017669706   -1.677619378468
 H    0.082317030571   -2.429204330294   -0.789004378468
 H    1.266209030571   -1.397781330294    0.107185621532
 H    1.266209030571   -1.397781330294   -1.685194378468
LI   -1.605453516721   -3.532536102720    8.326014043155
