16

 N   -1.412641834362    2.449348990628    0.064205898348
 C   -0.042026421953    2.648823668469    0.060574263972
 H    0.279757874385    3.692568599345    0.081993079665
 C   -2.012357103791    1.196233831075    0.039675907692
 O   -3.230131135323    1.029291125008    0.040671988466
 N   -1.087051088180    0.159456221233    0.012019370703
 H   -1.481624796043   -0.779058088616   -0.008489502695
 C    0.318679290215    0.245494933551    0.003571319912
 O    1.006999962643   -0.778122288251   -0.024536618641
 C    0.848448471280    1.613883802285    0.032177689046
 C    2.340738364886    1.797742127747    0.027346879220
 H    2.602285993966    2.866170004615    0.050001047367
 H    2.780882678476    1.339421908325   -0.871761372226
 H    2.791743571595    1.299255642441    0.899283716133
 H   -2.054948057691    3.233602028802    0.084101316638
RB    0.567221650663   -1.676068710822   -0.041485320784
