16

 N   -1.288730623272    2.702352892101    0.068981336681
 C    0.081884789137    2.901827569942    0.065349702305
 H    0.403669085475    3.945572500818    0.086768517998
 C   -1.888445892701    1.449237732548    0.044451346025
 O   -3.106219924233    1.282295026481    0.045447426799
 N   -0.963139877090    0.412460122706    0.016794809036
 H   -1.357713584953   -0.526054187143   -0.003714064362
 C    0.442590501305    0.498498835024    0.008346758245
 O    1.130911173733   -0.525118386778   -0.019761180308
 C    0.972359682370    1.866887703758    0.036953127379
 C    2.464649575976    2.050746029220    0.032122317553
 H    2.726197205056    3.119173906088    0.054776485700
 H    2.904793889566    1.592425809798   -0.866985933893
 H    2.915654782685    1.552259543914    0.904059154466
 H   -1.931036846601    3.486605930275    0.088876754971
RB    0.383288043366   -2.051627305148   -0.048573973951
