16

 N   -1.271029021688    2.738496306597    0.069663542157
 C    0.099586390721    2.937970984438    0.066031907781
 H    0.421370687059    3.981715915314    0.087450723474
 C   -1.870744291117    1.485381147044    0.045133551501
 O   -3.088518322649    1.318438440977    0.046129632275
 N   -0.945438275506    0.448603537202    0.017477014512
 H   -1.340011983369   -0.489910772647   -0.003031858886
 C    0.460292102889    0.534642249520    0.009028963721
 O    1.148612775317   -0.488974972282   -0.019078974832
 C    0.990061283954    1.903031118254    0.037635332855
 C    2.482351177560    2.086889443716    0.032804523029
 H    2.743898806640    3.155317320584    0.055458691176
 H    2.922495491150    1.628569224294   -0.866303728417
 H    2.933356384269    1.588402958410    0.904741359942
 H   -1.913335245017    3.522749344771    0.089558960447
RB    0.357011813752   -2.105278532909   -0.049586638690
