16

 N    0.180502308218    5.702256295277    0.125604391197
 C    1.551117720627    5.901730973118    0.121972756821
 H    1.872902016965    6.945475903994    0.143391572514
 C   -0.419212961211    4.449141135724    0.101074400541
 O   -1.636986992743    4.282198429657    0.102070481315
 N    0.506093054400    3.412363525882    0.073417863552
 H    0.111519346537    2.473849216033    0.052908990154
 C    1.911823432795    3.498402238200    0.064969812761
 O    2.600144105223    2.474785016398    0.036861874208
 C    2.441592613860    4.866791106934    0.093576181895
 C    3.933882507466    5.050649432396    0.088745372069
 H    4.195430136546    6.119077309264    0.111399540216
 H    4.374026821056    4.592329212974   -0.810362879377
 H    4.384887714175    4.552162947090    0.960682208982
 H   -0.461803915111    6.486509333451    0.145499809487
RB   -1.797639014584   -6.504679209306   -0.132625147221
