16

 N   -1.235625818519    2.810783135589    0.071027953109
 C    0.134989593890    3.010257813430    0.067396318733
 H    0.456773890228    4.054002744306    0.088815134426
 C   -1.835341087948    1.557667976036    0.046497962453
 O   -3.053115119480    1.390725269969    0.047494043227
 N   -0.910035072337    0.520890366194    0.018841425464
 H   -1.304608780200   -0.417623943655   -0.001667447934
 C    0.495695306058    0.606929078512    0.010393374673
 O    1.184015978486   -0.416688143290   -0.017714563880
 C    1.025464487123    1.975317947246    0.038999743807
 C    2.517754380729    2.159176272708    0.034168933981
 H    2.779302009809    3.227604149576    0.056823102128
 H    2.957898694319    1.700856053286   -0.864939317465
 H    2.968759587438    1.660689787402    0.906105770894
 H   -1.877932041848    3.595036173763    0.090923371399
RB    0.304459354524   -2.212580988431   -0.051611968166
