16

 N   -1.217924216935    2.846926550085    0.071710158585
 C    0.152691195474    3.046401227926    0.068078524209
 H    0.474475491812    4.090146158802    0.089497339902
 C   -1.817639486364    1.593811390532    0.047180167929
 O   -3.035413517896    1.426868684465    0.048176248703
 N   -0.892333470753    0.557033780690    0.019523630940
 H   -1.286907178616   -0.381480529159   -0.000985242458
 C    0.513396907642    0.643072493008    0.011075580149
 O    1.201717580070   -0.380544728794   -0.017032358404
 C    1.043166088707    2.011461361742    0.039681949283
 C    2.535455982313    2.195319687204    0.034851139457
 H    2.797003611393    3.263747564072    0.057505307604
 H    2.975600295903    1.736999467782   -0.864257111989
 H    2.986461189022    1.696833201898    0.906787976370
 H   -1.860230440264    3.631179588259    0.091605576875
RB    0.278183124910   -2.266232216192   -0.052624632904
