16

 N   -1.200222615351    2.883069964581    0.072392364061
 C    0.170392797058    3.082544642422    0.068760729685
 H    0.492177093396    4.126289573298    0.090179545378
 C   -1.799937884780    1.629954805028    0.047862373405
 O   -3.017711916312    1.463012098961    0.048858454179
 N   -0.874631869169    0.593177195186    0.020205836416
 H   -1.269205577032   -0.345337114663   -0.000303036982
 C    0.531098509226    0.679215907504    0.011757785625
 O    1.219419181654   -0.344401314298   -0.016350152928
 C    1.060867690291    2.047604776238    0.040364154759
 C    2.553157583897    2.231463101700    0.035533344933
 H    2.814705212977    3.299890978568    0.058187513080
 H    2.993301897487    1.773142882278   -0.863574906513
 H    3.004162790606    1.732976616394    0.907470181846
 H   -1.842528838680    3.667323002755    0.092287782351
RB    0.251906895296   -2.319883443953   -0.053637297642
