16

 N   -1.147117810598    2.991500208069    0.074438980489
 C    0.223497601811    3.190974885910    0.070807346113
 H    0.545281898149    4.234719816786    0.092226161806
 C   -1.746833080027    1.738385048516    0.049908989833
 O   -2.964607111559    1.571442342449    0.050905070607
 N   -0.821527064416    0.701607438674    0.022252452844
 H   -1.216100772279   -0.236906871175    0.001743579446
 C    0.584203313979    0.787646150992    0.013804402053
 O    1.272523986407   -0.235971070810   -0.014303536500
 C    1.113972495044    2.156035019726    0.042410771187
 C    2.606262388650    2.339893345188    0.037579961361
 H    2.867810017730    3.408321222056    0.060234129508
 H    3.046406702240    1.881573125766   -0.861528290085
 H    3.057267595359    1.841406859882    0.909516798274
 H   -1.789424033927    3.775753246243    0.094334398779
RB    0.173078206455   -2.480837127236   -0.056675291857
