16

 N   -1.094013005846    3.099930451558    0.076485596918
 C    0.276602406563    3.299405129399    0.072853962542
 H    0.598386702901    4.343150060275    0.094272778235
 C   -1.693728275275    1.846815292005    0.051955606262
 O   -2.911502306807    1.679872585938    0.052951687036
 N   -0.768422259664    0.810037682163    0.024299069273
 H   -1.162995967527   -0.128476627686    0.003790195875
 C    0.637308118731    0.896076394481    0.015851018482
 O    1.325628791159   -0.127540827321   -0.012256920071
 C    1.167077299796    2.264465263215    0.044457387616
 C    2.659367193402    2.448323588677    0.039626577790
 H    2.920914822482    3.516751465545    0.062280745937
 H    3.099511506992    1.990003369255   -0.859481673656
 H    3.110372400111    1.949837103371    0.911563414703
 H   -1.736319229175    3.884183489732    0.096381015208
RB    0.094249517613   -2.641790810518   -0.059713286071
