16

 N   -1.076311404261    3.136073866054    0.077167802394
 C    0.294304008148    3.335548543895    0.073536168018
 H    0.616088304486    4.379293474771    0.094954983711
 C   -1.676026673690    1.882958706501    0.052637811738
 O   -2.893800705222    1.716016000434    0.053633892512
 N   -0.750720658079    0.846181096659    0.024981274749
 H   -1.145294365942   -0.092333213190    0.004472401351
 C    0.655009720316    0.932219808977    0.016533223958
 O    1.343330392744   -0.091397412825   -0.011574714595
 C    1.184778901381    2.300608677711    0.045139593092
 C    2.677068794987    2.484467003173    0.040308783266
 H    2.938616424067    3.552894880041    0.062962951413
 H    3.117213108577    2.026146783751   -0.858799468180
 H    3.128074001696    1.985980517867    0.912245620179
 H   -1.718617627590    3.920326904228    0.097063220684
RB    0.067973287999   -2.695442038279   -0.060725950810
