16

 N   -0.970101794756    3.352934353031    0.081261035250
 C    0.400513617653    3.552409030872    0.077629400874
 H    0.722297913991    4.596153961748    0.099048216567
 C   -1.569817064185    2.099819193478    0.056731044594
 O   -2.787591095717    1.932876487411    0.057727125368
 N   -0.644511048574    1.063041583636    0.029074507605
 H   -1.039084756437    0.124527273787    0.008565634207
 C    0.761219329821    1.149080295954    0.020626456814
 O    1.449540002249    0.125463074152   -0.007481481739
 C    1.290988510886    2.517469164688    0.049232825948
 C    2.783278404492    2.701327490150    0.044402016122
 H    3.044826033572    3.769755367018    0.067056184269
 H    3.223422718082    2.243007270728   -0.854706235324
 H    3.234283611201    2.202841004844    0.916338853035
 H   -1.612408018085    4.137187391205    0.101156453540
RB   -0.089684089684   -3.017349404845   -0.066801939239
