16

 N   -0.934698591588    3.425221182023    0.082625446203
 C    0.435916820821    3.624695859864    0.078993811827
 H    0.757701117159    4.668440790740    0.100412627520
 C   -1.534413861017    2.172106022470    0.058095455547
 O   -2.752187892549    2.005163316403    0.059091536321
 N   -0.609107845406    1.135328412628    0.030438918558
 H   -1.003681553269    0.196814102779    0.009930045160
 C    0.796622532989    1.221367124946    0.021990867767
 O    1.484943205417    0.197749903144   -0.006117070786
 C    1.326391714054    2.589755993680    0.050597236901
 C    2.818681607660    2.773614319142    0.045766427075
 H    3.080229236740    3.842042196010    0.068420595222
 H    3.258825921250    2.315294099720   -0.853341824371
 H    3.269686814369    2.275127833836    0.917703263988
 H   -1.577004814917    4.209474220197    0.102520864493
RB   -0.142236548912   -3.124651860367   -0.068827268715
