16

 N   -0.916996990003    3.461364596519    0.083307651679
 C    0.453618422406    3.660839274360    0.079676017303
 H    0.775402718744    4.704584205236    0.101094832996
 C   -1.516712259432    2.208249436966    0.058777661023
 O   -2.734486290964    2.041306730899    0.059773741797
 N   -0.591406243821    1.171471827124    0.031121124034
 H   -0.985979951684    0.232957517275    0.010612250636
 C    0.814324134574    1.257510539442    0.022673073243
 O    1.502644807002    0.233893317640   -0.005434865310
 C    1.344093315639    2.625899408176    0.051279442377
 C    2.836383209245    2.809757733638    0.046448632551
 H    3.097930838325    3.878185610506    0.069102800698
 H    3.276527522835    2.351437514216   -0.852659618895
 H    3.287388415954    2.311271248332    0.918385469464
 H   -1.559303213332    4.245617634693    0.103203069969
RB   -0.168512778525   -3.178303088128   -0.069839933453
