16

 N   -0.899295388419    3.497508011015    0.083989857155
 C    0.471320023990    3.696982688856    0.080358222779
 H    0.793104320328    4.740727619732    0.101777038472
 C   -1.499010657848    2.244392851462    0.059459866499
 O   -2.716784689380    2.077450145395    0.060455947273
 N   -0.573704642237    1.207615241620    0.031803329510
 H   -0.968278350100    0.269100931771    0.011294456112
 C    0.832025736158    1.293653953938    0.023355278719
 O    1.520346408586    0.270036732136   -0.004752659834
 C    1.361794917223    2.662042822672    0.051961647853
 C    2.854084810829    2.845901148134    0.047130838027
 H    3.115632439909    3.914329025002    0.069785006174
 H    3.294229124419    2.387580928712   -0.851977413419
 H    3.305090017538    2.347414662828    0.919067674940
 H   -1.541601611748    4.281761049189    0.103885275445
RB   -0.194789008139   -3.231954315889   -0.070852598192
