16

 N   -0.810787380498    3.678225083495    0.087400884535
 C    0.559828031911    3.877699761336    0.083769250159
 H    0.881612328249    4.921444692212    0.105188065852
 C   -1.410502649927    2.425109923942    0.062870893879
 O   -2.628276681459    2.258167217875    0.063866974653
 N   -0.485196634316    1.388332314100    0.035214356890
 H   -0.879770342179    0.449818004251    0.014705483492
 C    0.920533744079    1.474371026418    0.026766306099
 O    1.608854416507    0.450753804616   -0.001341632454
 C    1.450302925144    2.842759895152    0.055372675233
 C    2.942592818750    3.026618220614    0.050541865407
 H    3.204140447830    4.095046097482    0.073196033554
 H    3.382737132340    2.568298001192   -0.848566386039
 H    3.393598025459    2.528131735308    0.922478702320
 H   -1.453093603827    4.462478121669    0.107296302825
RB   -0.326170156209   -3.500210454693   -0.075915921883
