16

 N   -0.775384177330    3.750511912488    0.088765295488
 C    0.595231235079    3.949986590329    0.085133661112
 H    0.917015531417    4.993731521205    0.106552476805
 C   -1.375099446759    2.497396752935    0.064235304832
 O   -2.592873478291    2.330454046868    0.065231385606
 N   -0.449793431148    1.460619143093    0.036578767843
 H   -0.844367139011    0.522104833244    0.016069894445
 C    0.955936947247    1.546657855411    0.028130717052
 O    1.644257619675    0.523040633609    0.000022778499
 C    1.485706128312    2.915046724145    0.056737086186
 C    2.977996021918    3.098905049607    0.051906276360
 H    3.239543650998    4.167332926475    0.074560444507
 H    3.418140335508    2.640584830185   -0.847201975086
 H    3.429001228627    2.600418564301    0.923843113273
 H   -1.417690400659    4.534764950662    0.108660713778
RB   -0.378722615436   -3.607512910215   -0.077941251359
