16

 N   -0.757682575745    3.786655326984    0.089447500964
 C    0.612932836664    3.986130004825    0.085815866588
 H    0.934717133002    5.029874935701    0.107234682281
 C   -1.357397845174    2.533540167431    0.064917510308
 O   -2.575171876706    2.366597461364    0.065913591082
 N   -0.432091829563    1.496762557589    0.037260973319
 H   -0.826665537426    0.558248247740    0.016752099921
 C    0.973638548832    1.582801269907    0.028812922528
 O    1.661959221260    0.559184048105    0.000704983975
 C    1.503407729897    2.951190138641    0.057419291662
 C    2.995697623503    3.135048464103    0.052588481836
 H    3.257245252583    4.203476340971    0.075242649983
 H    3.435841937093    2.676728244681   -0.846519769610
 H    3.446702830212    2.636561978797    0.924525318749
 H   -1.399988799074    4.570908365158    0.109342919254
RB   -0.404998845050   -3.661164137976   -0.078953916097
