16

 N   -0.722279372577    3.858942155976    0.090811911916
 C    0.648336039832    4.058416833817    0.087180277540
 H    0.970120336170    5.102161764693    0.108599093233
 C   -1.321994642006    2.605826996423    0.066281921260
 O   -2.539768673538    2.438884290356    0.067278002034
 N   -0.396688626395    1.569049386581    0.038625384271
 H   -0.791262334258    0.630535076732    0.018116510873
 C    1.009041752000    1.655088098899    0.030177333480
 O    1.697362424428    0.631470877097    0.002069394927
 C    1.538810933065    3.023476967633    0.058783702614
 C    3.031100826671    3.207335293095    0.053952892788
 H    3.292648455751    4.275763169963    0.076607060935
 H    3.471245140261    2.749015073673   -0.845155358658
 H    3.482106033380    2.708848807789    0.925889729701
 H   -1.364585595906    4.643195194150    0.110707330206
RB   -0.457551304278   -3.768466593498   -0.080979245574
