16

 N   -0.651472966240    4.003515813960    0.093540733820
 C    0.719142446169    4.202990491801    0.089909099444
 H    1.040926742507    5.246735422677    0.111327915137
 C   -1.251188235669    2.750400654407    0.069010743164
 O   -2.468962267201    2.583457948340    0.070006823938
 N   -0.325882220058    1.713623044565    0.041354206175
 H   -0.720455927921    0.775108734716    0.020845332777
 C    1.079848158337    1.799661756883    0.032906155384
 O    1.768168830765    0.776044535081    0.004798216831
 C    1.609617339402    3.168050625617    0.061512524518
 C    3.101907233008    3.351908951079    0.056681714692
 H    3.363454862088    4.420336827947    0.079335882839
 H    3.542051546598    2.893588731657   -0.842426536754
 H    3.552912439717    2.853422465773    0.928618551605
 H   -1.293779189569    4.787768852134    0.113436152110
RB   -0.562656222733   -3.983071504542   -0.085029904526
