16

 N   -0.633771364656    4.039659228457    0.094222939296
 C    0.736844047753    4.239133906298    0.090591304920
 H    1.058628344091    5.282878837174    0.112010120613
 C   -1.233486634085    2.786544068904    0.069692948640
 O   -2.451260665617    2.619601362837    0.070689029414
 N   -0.308180618474    1.749766459062    0.042036411651
 H   -0.702754326337    0.811252149213    0.021527538253
 C    1.097549759921    1.835805171380    0.033588360860
 O    1.785870432349    0.812187949578    0.005480422307
 C    1.627318940986    3.204194040114    0.062194729994
 C    3.119608834592    3.388052365576    0.057363920168
 H    3.381156463672    4.456480242444    0.080018088315
 H    3.559753148182    2.929732146154   -0.841744331278
 H    3.570614041301    2.889565880270    0.929300757081
 H   -1.276077587985    4.823912266631    0.114118357586
RB   -0.588932452347   -4.036722732303   -0.086042569264
