16

 N   -0.616069763072    4.075802642953    0.094905144773
 C    0.754545649337    4.275277320794    0.091273510397
 H    1.076329945675    5.319022251670    0.112692326090
 C   -1.215785032501    2.822687483400    0.070375154117
 O   -2.433559064033    2.655744777333    0.071371234891
 N   -0.290479016890    1.785909873558    0.042718617128
 H   -0.685052724753    0.847395563709    0.022209743730
 C    1.115251361505    1.871948585876    0.034270566337
 O    1.803572033933    0.848331364074    0.006162627784
 C    1.645020542570    3.240337454610    0.062876935471
 C    3.137310436176    3.424195780072    0.058046125645
 H    3.398858065256    4.492623656940    0.080700293792
 H    3.577454749766    2.965875560650   -0.841062125801
 H    3.588315642885    2.925709294766    0.929982962558
 H   -1.258375986401    4.860055681127    0.114800563063
RB   -0.615208681961   -4.090373960064   -0.087055234003
