16

 N   -0.580666559903    4.148089471945    0.096269555725
 C    0.789948852506    4.347564149786    0.092637921349
 H    1.111733148844    5.391309080662    0.114056737042
 C   -1.180381829332    2.894974312392    0.071739565069
 O   -2.398155860864    2.728031606325    0.072735645843
 N   -0.255075813721    1.858196702550    0.044083028080
 H   -0.649649521584    0.919682392701    0.023574154682
 C    1.150654564674    1.944235414868    0.035634977289
 O    1.838975237102    0.920618193066    0.007527038736
 C    1.680423745739    3.312624283602    0.064241346423
 C    3.172713639345    3.496482609064    0.059410536597
 H    3.434261268425    4.564910485932    0.082064704744
 H    3.612857952935    3.038162389642   -0.839697714849
 H    3.623718846054    2.997996123758    0.931347373510
 H   -1.222972783232    4.932342510119    0.116164974015
RB   -0.667761141189   -4.197676415585   -0.089080563479
