16

 N   -0.545263356735    4.220376300937    0.097633966677
 C    0.825352055674    4.419850978778    0.094002332301
 H    1.147136352012    5.463595909654    0.115421147994
 C   -1.144978626164    2.967261141384    0.073103976021
 O   -2.362752657696    2.800318435317    0.074100056795
 N   -0.219672610553    1.930483531542    0.045447439032
 H   -0.614246318416    0.991969221693    0.024938565634
 C    1.186057767842    2.016522243860    0.036999388241
 O    1.874378440270    0.992905022058    0.008891449688
 C    1.715826948907    3.384911112594    0.065605757375
 C    3.208116842513    3.568769438056    0.060774947549
 H    3.469664471593    4.637197314924    0.083429115696
 H    3.648261156103    3.110449218634   -0.838333303897
 H    3.659122049222    3.070282952750    0.932711784462
 H   -1.187569580064    5.004629339111    0.117529384967
RB   -0.720313600416   -4.304978871107   -0.091105892955
