16

 N   -0.439053747229    4.437236787914    0.101727199534
 C    0.931561665180    4.636711465755    0.098095565158
 H    1.253345961518    5.680456396631    0.119514380851
 C   -1.038769016658    3.184121628361    0.077197208878
 O   -2.256543048190    3.017178922294    0.078193289652
 N   -0.113463001047    2.147344018519    0.049540671889
 H   -0.508036708910    1.208829708670    0.029031798491
 C    1.292267377348    2.233382730837    0.041092621098
 O    1.980588049776    1.209765509035    0.012984682545
 C    1.822036558413    3.601771599571    0.069698990232
 C    3.314326452019    3.785629925033    0.064868180406
 H    3.575874081099    4.854057801901    0.087522348553
 H    3.754470765609    3.327309705611   -0.834240071040
 H    3.765331658728    3.287143439727    0.936805017319
 H   -1.081359970558    5.221489826088    0.121622617824
RB   -0.877970978099   -4.626886237673   -0.097181881385
