16

 N   -0.403650544061    4.509523616906    0.103091610486
 C    0.966964868348    4.708998294747    0.099459976110
 H    1.288749164686    5.752743225623    0.120878791803
 C   -1.003365813490    3.256408457353    0.078561619830
 O   -2.221139845022    3.089465751286    0.079557700604
 N   -0.078059797879    2.219630847511    0.050905082841
 H   -0.472633505742    1.281116537662    0.030396209443
 C    1.327670580516    2.305669559829    0.042457032050
 O    2.015991252944    1.282052338027    0.014349093497
 C    1.857439761581    3.674058428563    0.071063401184
 C    3.349729655187    3.857916754025    0.066232591358
 H    3.611277284267    4.926344630893    0.088886759505
 H    3.789873968777    3.399596534603   -0.832875660088
 H    3.800734861896    3.359430268719    0.938169428271
 H   -1.045956767390    5.293776655080    0.122987028776
RB   -0.930523437327   -4.734188693195   -0.099207210861
