16

 N   -0.368247340892    4.581810445898    0.104456021438
 C    1.002368071517    4.781285123739    0.100824387062
 H    1.324152367855    5.825030054615    0.122243202755
 C   -0.967962610321    3.328695286345    0.079926030782
 O   -2.185736641853    3.161752580278    0.080922111556
 N   -0.042656594710    2.291917676503    0.052269493793
 H   -0.437230302573    1.353403366654    0.031760620395
 C    1.363073783685    2.377956388821    0.043821443002
 O    2.051394456113    1.354339167019    0.015713504449
 C    1.892842964750    3.746345257555    0.072427812136
 C    3.385132858356    3.930203583017    0.067597002310
 H    3.646680487436    4.998631459885    0.090251170457
 H    3.825277171946    3.471883363595   -0.831511249136
 H    3.836138065065    3.431717097711    0.939533839223
 H   -1.010553564221    5.366063484072    0.124351439728
RB   -0.983075896555   -4.841491148717   -0.101232540337
