16

 N   -0.332844137724    4.654097274890    0.105820432390
 C    1.037771274685    4.853571952731    0.102188798014
 H    1.359555571023    5.897316883607    0.123607613707
 C   -0.932559407153    3.400982115337    0.081290441734
 O   -2.150333438685    3.234039409270    0.082286522508
 N   -0.007253391542    2.364204505495    0.053633904745
 H   -0.401827099405    1.425690195646    0.033125031347
 C    1.398476986853    2.450243217813    0.045185853954
 O    2.086797659281    1.426625996011    0.017077915401
 C    1.928246167918    3.818632086547    0.073792223088
 C    3.420536061524    4.002490412009    0.068961413262
 H    3.682083690604    5.070918288877    0.091615581409
 H    3.860680375114    3.544170192587   -0.830146838184
 H    3.871541268233    3.504003926703    0.940898250175
 H   -0.975150361053    5.438350313064    0.125715850680
RB   -1.035628355783   -4.948793604239   -0.103257869814
