16

 N   -0.315142536140    4.690240689386    0.106502637866
 C    1.055472876269    4.889715367227    0.102871003490
 H    1.377257172607    5.933460298103    0.124289819183
 C   -0.914857805569    3.437125529833    0.081972647210
 O   -2.132631837101    3.270182823766    0.082968727984
 N    0.010448210042    2.400347919991    0.054316110221
 H   -0.384125497821    1.461833610142    0.033807236823
 C    1.416178588437    2.486386632309    0.045868059430
 O    2.104499260865    1.462769410507    0.017760120877
 C    1.945947769502    3.854775501043    0.074474428564
 C    3.438237663108    4.038633826505    0.069643618738
 H    3.699785292188    5.107061703373    0.092297786885
 H    3.878381976698    3.580313607083   -0.829464632708
 H    3.889242869817    3.540147341199    0.941580455651
 H   -0.957448759469    5.474493727560    0.126398056156
RB   -1.061904585396   -5.002444831999   -0.104270534552
