16

 N   -0.297440934556    4.726384103883    0.107184843342
 C    1.073174477853    4.925858781724    0.103553208966
 H    1.394958774191    5.969603712600    0.124972024659
 C   -0.897156203985    3.473268944330    0.082654852686
 O   -2.114930235517    3.306326238263    0.083650933460
 N    0.028149811626    2.436491334488    0.054998315697
 H   -0.366423896237    1.497977024639    0.034489442299
 C    1.433880190021    2.522530046806    0.046550264906
 O    2.122200862449    1.498912825004    0.018442326353
 C    1.963649371086    3.890918915540    0.075156634040
 C    3.455939264692    4.074777241002    0.070325824214
 H    3.717486893772    5.143205117870    0.092979992361
 H    3.896083578282    3.616457021580   -0.828782427232
 H    3.906944471401    3.576290755696    0.942262661127
 H   -0.939747157885    5.510637142057    0.127080261632
RB   -1.088180815010   -5.056096059760   -0.105283199290
