16

 N   -0.279739332971    4.762527518379    0.107867048818
 C    1.090876079438    4.962002196220    0.104235414442
 H    1.412660375776    6.005747127096    0.125654230135
 C   -0.879454602400    3.509412358826    0.083337058162
 O   -2.097228633932    3.342469652759    0.084333138936
 N    0.045851413211    2.472634748984    0.055680521173
 H   -0.348722294652    1.534120439135    0.035171647775
 C    1.451581791606    2.558673461302    0.047232470382
 O    2.139902464034    1.535056239500    0.019124531829
 C    1.981350972671    3.927062330036    0.075838839516
 C    3.473640866277    4.110920655498    0.071008029690
 H    3.735188495357    5.179348532366    0.093662197837
 H    3.913785179867    3.652600436076   -0.828100221756
 H    3.924646072986    3.612434170192    0.942944866603
 H   -0.922045556300    5.546780556553    0.127762467108
RB   -1.114457044624   -5.109747287521   -0.106295864028
