16

 N   -0.208932926634    4.907101176363    0.110595870723
 C    1.161682485775    5.106575854204    0.106964236347
 H    1.483466782113    6.150320785080    0.128383052040
 C   -0.808648196063    3.653986016810    0.086065880067
 O   -2.026422227595    3.487043310743    0.087061960841
 N    0.116657819548    2.617208406968    0.058409343078
 H   -0.277915888315    1.678694097119    0.037900469680
 C    1.522388197943    2.703247119286    0.049961292287
 O    2.210708870371    1.679629897484    0.021853353734
 C    2.052157379008    4.071635988020    0.078567661421
 C    3.544447272614    4.255494313482    0.073736851595
 H    3.805994901694    5.323922190350    0.096391019742
 H    3.984591586204    3.797174094060   -0.825371399851
 H    3.995452479323    3.757007828176    0.945673688508
 H   -0.851239149963    5.691354214537    0.130491289013
RB   -1.219561963080   -5.324352198565   -0.110346522981
