16

 N   -0.191231325050    4.943244590859    0.111278076199
 C    1.179384087359    5.142719268700    0.107646441823
 H    1.501168383697    6.186464199576    0.129065257516
 C   -0.790946594479    3.690129431306    0.086748085543
 O   -2.008720626011    3.523186725239    0.087744166317
 N    0.134359421132    2.653351821464    0.059091548554
 H   -0.260214286731    1.714837511615    0.038582675156
 C    1.540089799527    2.739390533782    0.050643497763
 O    2.228410471955    1.715773311980    0.022535559210
 C    2.069858980592    4.107779402516    0.079249866897
 C    3.562148874198    4.291637727978    0.074419057071
 H    3.823696503278    5.360065604846    0.097073225218
 H    4.002293187788    3.833317508556   -0.824689194375
 H    4.013154080907    3.793151242672    0.946355893984
 H   -0.833537548379    5.727497629033    0.131173494489
RB   -1.245838192693   -5.378003426326   -0.111359187719
