16

 N   -0.155828121882    5.015531419851    0.112642487151
 C    1.214787290527    5.215006097692    0.109010852775
 H    1.536571586865    6.258751028568    0.130429668468
 C   -0.755543391311    3.762416260298    0.088112496495
 O   -1.973317422843    3.595473554231    0.089108577269
 N    0.169762624300    2.725638650456    0.060455959506
 H   -0.224811083563    1.787124340607    0.039947086108
 C    1.575493002695    2.811677362774    0.052007908715
 O    2.263813675123    1.788060140972    0.023899970162
 C    2.105262183760    4.180066231508    0.080614277849
 C    3.597552077366    4.363924556970    0.075783468023
 H    3.859099706446    5.432352433838    0.098437636170
 H    4.037696390956    3.905604337548   -0.823324783423
 H    4.048557284075    3.865438071664    0.947720304936
 H   -0.798134345211    5.799784458025    0.132537905441
RB   -1.298390651921   -5.485305881848   -0.113384517196
