16

 N   -0.067320113961    5.196248492332    0.116053514532
 C    1.303295298448    5.395723170173    0.112421880156
 H    1.625079594786    6.439468101049    0.133840695849
 C   -0.667035383390    3.943133332779    0.091523523876
 O   -1.884809414922    3.776190626712    0.092519604650
 N    0.258270632221    2.906355722937    0.063866986887
 H   -0.136303075642    1.967841413088    0.043358113489
 C    1.664001010616    2.992394435255    0.055418936096
 O    2.352321683044    1.968777213453    0.027310997543
 C    2.193770191681    4.360783303989    0.084025305230
 C    3.686060085287    4.544641629451    0.079194495404
 H    3.947607714367    5.613069506319    0.101848663551
 H    4.126204398877    4.086321410029   -0.819913756042
 H    4.137065291996    4.046155144145    0.951131332317
 H   -0.709626337290    5.980501530506    0.135948932822
RB   -1.429771799990   -5.753562020653   -0.118447840887
