16

 N    0.003486292376    5.340822150316    0.118782336436
 C    1.374101704785    5.540296828157    0.115150702060
 H    1.695886001123    6.584041759033    0.136569517753
 C   -0.596228977053    4.087706990763    0.094252345780
 O   -1.814003008585    3.920764284696    0.095248426554
 N    0.329077038558    3.050929380921    0.066595808791
 H   -0.065496669305    2.112415071072    0.046086935393
 C    1.734807416953    3.136968093239    0.058147758000
 O    2.423128089381    2.113350871437    0.030039819447
 C    2.264576598018    4.505356961973    0.086754127134
 C    3.756866491624    4.689215287435    0.081923317308
 H    4.018414120704    5.757643164303    0.104577485455
 H    4.197010805214    4.230895068013   -0.817184934138
 H    4.207871698333    4.190728802129    0.953860154221
 H   -0.638819930953    6.125075188490    0.138677754726
RB   -1.534876718446   -5.968166931696   -0.122498499839
