16

 N    0.038889495545    5.413108979309    0.120146747388
 C    1.409504907954    5.612583657150    0.116515113012
 H    1.731289204292    6.656328588026    0.137933928705
 C   -0.560825773884    4.159993819756    0.095616756732
 O   -1.778599805416    3.993051113689    0.096612837506
 N    0.364480241727    3.123216209914    0.067960219743
 H   -0.030093466136    2.184701900065    0.047451346345
 C    1.770210620122    3.209254922232    0.059512168952
 O    2.458531292550    2.185637700430    0.031404230399
 C    2.299979801187    4.577643790966    0.088118538086
 C    3.792269694793    4.761502116428    0.083287728260
 H    4.053817323873    5.829929993296    0.105941896407
 H    4.232414008383    4.303181897006   -0.815820523186
 H    4.243274901502    4.263015631122    0.955224565173
 H   -0.603416727784    6.197362017483    0.140042165678
RB   -1.587429177674   -6.075469387218   -0.124523829316
