16

 N    0.056591097129    5.449252393805    0.120828952864
 C    1.427206509538    5.648727071646    0.117197318488
 H    1.748990805876    6.692472002522    0.138616134181
 C   -0.543124172300    4.196137234252    0.096298962208
 O   -1.760898203832    4.029194528185    0.097295042982
 N    0.382181843311    3.159359624410    0.068642425219
 H   -0.012391864552    2.220845314561    0.048133551821
 C    1.787912221706    3.245398336728    0.060194374428
 O    2.476232894134    2.221781114926    0.032086435875
 C    2.317681402771    4.613787205462    0.088800743562
 C    3.809971296377    4.797645530924    0.083969933736
 H    4.071518925457    5.866073407792    0.106624101883
 H    4.250115609967    4.339325311502   -0.815138317710
 H    4.260976503086    4.299159045618    0.955906770649
 H   -0.585715126200    6.233505431979    0.140724371154
RB   -1.613705407287   -6.129120614979   -0.125536494054
