16

 N    0.109695901882    5.557682637293    0.122875569293
 C    1.480311314291    5.757157315134    0.119243934917
 H    1.802095610629    6.800902246010    0.140662750610
 C   -0.490019367547    4.304567477740    0.098345578637
 O   -1.707793399079    4.137624771673    0.099341659411
 N    0.435286648064    3.267789867898    0.070689041648
 H    0.040712940201    2.329275558049    0.050180168250
 C    1.841017026459    3.353828580216    0.062240990857
 O    2.529337698887    2.330211358414    0.034133052304
 C    2.370786207524    4.722217448950    0.090847359991
 C    3.863076101130    4.906075774412    0.086016550165
 H    4.124623730210    5.974503651280    0.108670718312
 H    4.303220414720    4.447755554990   -0.813091701281
 H    4.314081307839    4.407589289106    0.957953387078
 H   -0.532610321447    6.341935675467    0.142770987583
RB   -1.692534096129   -6.290074298262   -0.128574488269
