16

 N    0.145099105050    5.629969466285    0.124239980245
 C    1.515714517459    5.829444144126    0.120608345869
 H    1.837498813797    6.873189075002    0.142027161562
 C   -0.454616164379    4.376854306732    0.099709989589
 O   -1.672390195911    4.209911600665    0.100706070363
 N    0.470689851232    3.340076696890    0.072053452600
 H    0.076116143369    2.401562387041    0.051544579202
 C    1.876420229627    3.426115409208    0.063605401809
 O    2.564740902055    2.402498187406    0.035497463256
 C    2.406189410692    4.794504277942    0.092211770943
 C    3.898479304298    4.978362603404    0.087380961117
 H    4.160026933378    6.046790480272    0.110035129264
 H    4.338623617888    4.520042383982   -0.811727290329
 H    4.349484511007    4.479876118098    0.959317798030
 H   -0.497207118279    6.414222504459    0.144135398535
RB   -1.745086555357   -6.397376753784   -0.130599817745
