16

 N    0.162800706634    5.666112880781    0.124922185721
 C    1.533416119043    5.865587558622    0.121290551345
 H    1.855200415381    6.909332489498    0.142709367038
 C   -0.436914562795    4.412997721228    0.100392195065
 O   -1.654688594327    4.246055015161    0.101388275839
 N    0.488391452816    3.376220111386    0.072735658076
 H    0.093817744953    2.437705801537    0.052226784678
 C    1.894121831211    3.462258823704    0.064287607285
 O    2.582442503639    2.438641601902    0.036179668732
 C    2.423891012276    4.830647692438    0.092893976419
 C    3.916180905882    5.014506017900    0.088063166593
 H    4.177728534962    6.082933894768    0.110717334740
 H    4.356325219472    4.556185798478   -0.811045084853
 H    4.367186112591    4.516019532594    0.960000003506
 H   -0.479505516695    6.450365918955    0.144817604011
RB   -1.771362784971   -6.451027981545   -0.131612482483
