7

 H   -0.793082247292    1.898967945104    0.000000000000
 H    0.746476752708    1.989946945104    0.902247000000
 H    0.746476752708    1.989946945104   -0.902247000000
 C    0.262665752708    1.593426945104    0.000000000000
 S    0.262665752708   -0.239299054896    0.000000000000
 H    1.603248752708   -0.395690054896    0.000000000000
NA   -0.603359651076   -0.739299054896    0.000000000000
