7

 H   -0.708948523690    1.947542573073    0.000000000000
 H    0.830610476310    2.038521573073    0.902247000000
 H    0.830610476310    2.038521573073   -0.902247000000
 C    0.346799476310    1.642001573073    0.000000000000
 S    0.346799476310   -0.190724426927    0.000000000000
 H    1.687382476310   -0.347115426927    0.000000000000
NA   -0.779033548610   -0.840724426927    0.000000000000
