7

 H   -0.680903949156    1.963734115730    0.000000000000
 H    0.858655050844    2.054713115730    0.902247000000
 H    0.858655050844    2.054713115730   -0.902247000000
 C    0.374844050844    1.658193115730    0.000000000000
 S    0.374844050844   -0.174532884270    0.000000000000
 H    1.715427050844   -0.330923884270    0.000000000000
NA   -0.837591514455   -0.874532884270    0.000000000000
