7

 H   -0.652859374623    1.979925658386    0.000000000000
 H    0.886699625377    2.070904658386    0.902247000000
 H    0.886699625377    2.070904658386   -0.902247000000
 C    0.402888625377    1.674384658386    0.000000000000
 S    0.402888625377   -0.158341341614    0.000000000000
 H    1.743471625377   -0.314732341614    0.000000000000
NA   -0.896149480299   -0.908341341614    0.000000000000
