7

 H   -0.456547352886    2.093266456981    0.000000000000
 H    1.083011647114    2.184245456981    0.902247000000
 H    1.083011647114    2.184245456981   -0.902247000000
 C    0.599200647114    1.787725456981    0.000000000000
 S    0.599200647114   -0.045000543019    0.000000000000
 H    1.939783647114   -0.201391543019    0.000000000000
NA   -1.306055241212   -1.145000543019    0.000000000000
