7

 H   -0.400458203818    2.125649542294    0.000000000000
 H    1.139100796182    2.216628542294    0.902247000000
 H    1.139100796182    2.216628542294   -0.902247000000
 C    0.655289796182    1.820108542294    0.000000000000
 S    0.655289796182   -0.012617457706    0.000000000000
 H    1.995872796182   -0.169008457706    0.000000000000
NA   -1.423171172901   -1.212617457706    0.000000000000
