7

 H   -0.372413629284    2.141841084950    0.000000000000
 H    1.167145370716    2.232820084950    0.902247000000
 H    1.167145370716    2.232820084950   -0.902247000000
 C    0.683334370716    1.836300084950    0.000000000000
 S    0.683334370716    0.003574084950    0.000000000000
 H    2.023917370716   -0.152816915050    0.000000000000
NA   -1.481729138745   -1.246425915050    0.000000000000
