7

 H   -0.316324480217    2.174224170263    0.000000000000
 H    1.223234519783    2.265203170263    0.902247000000
 H    1.223234519783    2.265203170263   -0.902247000000
 C    0.739423519783    1.868683170263    0.000000000000
 S    0.739423519783    0.035957170263    0.000000000000
 H    2.080006519783   -0.120433829737    0.000000000000
NA   -1.598845070435   -1.314042829737    0.000000000000
