7

 H   -0.288279905683    2.190415712919    0.000000000000
 H    1.251279094317    2.281394712919    0.902247000000
 H    1.251279094317    2.281394712919   -0.902247000000
 C    0.767468094317    1.884874712919    0.000000000000
 S    0.767468094317    0.052148712919    0.000000000000
 H    2.108051094317   -0.104242287081    0.000000000000
NA   -1.657403036279   -1.347851287081    0.000000000000
