7

 H   -0.260235331149    2.206607255576    0.000000000000
 H    1.279323668851    2.297586255576    0.902247000000
 H    1.279323668851    2.297586255576   -0.902247000000
 C    0.795512668851    1.901066255576    0.000000000000
 S    0.795512668851    0.068340255576    0.000000000000
 H    2.136095668851   -0.088050744424    0.000000000000
NA   -1.715961002124   -1.381659744424    0.000000000000
