7

 H   -0.232190756615    2.222798798232    0.000000000000
 H    1.307368243385    2.313777798232    0.902247000000
 H    1.307368243385    2.313777798232   -0.902247000000
 C    0.823557243385    1.917257798232    0.000000000000
 S    0.823557243385    0.084531798232    0.000000000000
 H    2.164140243385   -0.071859201768    0.000000000000
NA   -1.774518967969   -1.415468201768    0.000000000000
