7

 H   -0.176101607548    2.255181883545    0.000000000000
 H    1.363457392452    2.346160883545    0.902247000000
 H    1.363457392452    2.346160883545   -0.902247000000
 C    0.879646392452    1.949640883545    0.000000000000
 S    0.879646392452    0.116914883545    0.000000000000
 H    2.220229392452   -0.039476116455    0.000000000000
NA   -1.891634899658   -1.483085116455    0.000000000000
