7

 H   -0.148057033014    2.271373426201    0.000000000000
 H    1.391501966986    2.362352426201    0.902247000000
 H    1.391501966986    2.362352426201   -0.902247000000
 C    0.907690966986    1.965832426201    0.000000000000
 S    0.907690966986    0.133106426201    0.000000000000
 H    2.248273966986   -0.023284573799    0.000000000000
NA   -1.950192865502   -1.516893573799    0.000000000000
