7

 H   -0.035878734878    2.336139596827    0.000000000000
 H    1.503680265122    2.427118596827    0.902247000000
 H    1.503680265122    2.427118596827   -0.902247000000
 C    1.019869265122    2.030598596827    0.000000000000
 S    1.019869265122    0.197872596827    0.000000000000
 H    2.360452265122    0.041481596827    0.000000000000
NA   -2.184424728881   -1.652127403173    0.000000000000
