7

 H    0.048254988723    2.384714224796    0.000000000000
 H    1.587813988723    2.475693224796    0.902247000000
 H    1.587813988723    2.475693224796   -0.902247000000
 C    1.104002988723    2.079173224796    0.000000000000
 S    1.104002988723    0.246447224796    0.000000000000
 H    2.444585988723    0.090056224796    0.000000000000
NA   -2.360098626415   -1.753552775204    0.000000000000
