7

 H    0.104344137791    2.417097310109    0.000000000000
 H    1.643903137791    2.508076310109    0.902247000000
 H    1.643903137791    2.508076310109   -0.902247000000
 C    1.160092137791    2.111556310109    0.000000000000
 S    1.160092137791    0.278830310109    0.000000000000
 H    2.500675137791    0.122439310109    0.000000000000
NA   -2.477214558104   -1.821169689891    0.000000000000
