7

 H    0.216522435926    2.481863480735    0.000000000000
 H    1.756081435926    2.572842480735    0.902247000000
 H    1.756081435926    2.572842480735   -0.902247000000
 C    1.272270435926    2.176322480735    0.000000000000
 S    1.272270435926    0.343596480735    0.000000000000
 H    2.612853435926    0.187205480735    0.000000000000
NA   -2.711446421482   -1.956403519265    0.000000000000
