7

 H    0.244567010460    2.498055023391    0.000000000000
 H    1.784126010460    2.589034023391    0.902247000000
 H    1.784126010460    2.589034023391   -0.902247000000
 C    1.300315010460    2.192514023391    0.000000000000
 S    1.300315010460    0.359788023391    0.000000000000
 H    2.640898010460    0.203397023391    0.000000000000
NA   -2.770004387327   -1.990211976609    0.000000000000
