7

 H    0.300656159527    2.530438108704    0.000000000000
 H    1.840215159527    2.621417108704    0.902247000000
 H    1.840215159527    2.621417108704   -0.902247000000
 C    1.356404159527    2.224897108704    0.000000000000
 S    1.356404159527    0.392171108704    0.000000000000
 H    2.696987159527    0.235780108704    0.000000000000
NA   -2.887120319016   -2.057828891296    0.000000000000
