7

 H    0.356745308595    2.562821194017    0.000000000000
 H    1.896304308595    2.653800194017    0.902247000000
 H    1.896304308595    2.653800194017   -0.902247000000
 C    1.412493308595    2.257280194017    0.000000000000
 S    1.412493308595    0.424554194017    0.000000000000
 H    2.753076308595    0.268163194017    0.000000000000
NA   -3.004236250705   -2.125445805983    0.000000000000
