7

 H    0.496968181264    2.643778907299    0.000000000000
 H    2.036527181264    2.734757907299    0.902247000000
 H    2.036527181264    2.734757907299   -0.902247000000
 C    1.552716181264    2.338237907299    0.000000000000
 S    1.552716181264    0.505511907299    0.000000000000
 H    2.893299181264    0.349120907299    0.000000000000
NA   -3.297026079929   -2.294488092701    0.000000000000
