7

 H    0.525012755798    2.659970449955    0.000000000000
 H    2.064571755798    2.750949449955    0.902247000000
 H    2.064571755798    2.750949449955   -0.902247000000
 C    1.580760755798    2.354429449955    0.000000000000
 S    1.580760755798    0.521703449955    0.000000000000
 H    2.921343755798    0.365312449955    0.000000000000
NA   -3.355584045773   -2.328296550045    0.000000000000
