7

 H    0.609146479400    2.708545077925    0.000000000000
 H    2.148705479400    2.799524077925    0.902247000000
 H    2.148705479400    2.799524077925   -0.902247000000
 C    1.664894479400    2.403004077925    0.000000000000
 S    1.664894479400    0.570278077925    0.000000000000
 H    3.005477479400    0.413887077925    0.000000000000
NA   -3.531257943307   -2.429721922075    0.000000000000
