7

 H    0.665235628467    2.740928163237    0.000000000000
 H    2.204794628467    2.831907163237    0.902247000000
 H    2.204794628467    2.831907163237   -0.902247000000
 C    1.720983628467    2.435387163237    0.000000000000
 S    1.720983628467    0.602661163237    0.000000000000
 H    3.061566628467    0.446270163237    0.000000000000
NA   -3.648373874996   -2.497338836763    0.000000000000
