7

 H    0.777413926603    2.805694333863    0.000000000000
 H    2.316972926603    2.896673333863    0.902247000000
 H    2.316972926603    2.896673333863   -0.902247000000
 C    1.833161926603    2.500153333863    0.000000000000
 S    1.833161926603    0.667427333863    0.000000000000
 H    3.173744926603    0.511036333863    0.000000000000
NA   -3.882605738375   -2.632572666137    0.000000000000
