7

 H    0.833503075670    2.838077419176    0.000000000000
 H    2.373062075670    2.929056419176    0.902247000000
 H    2.373062075670    2.929056419176   -0.902247000000
 C    1.889251075670    2.532536419176    0.000000000000
 S    1.889251075670    0.699810419176    0.000000000000
 H    3.229834075670    0.543419419176    0.000000000000
NA   -3.999721670064   -2.700189580824    0.000000000000
