7

 H    0.889592224738    2.870460504489    0.000000000000
 H    2.429151224738    2.961439504489    0.902247000000
 H    2.429151224738    2.961439504489   -0.902247000000
 C    1.945340224738    2.564919504489    0.000000000000
 S    1.945340224738    0.732193504489    0.000000000000
 H    3.285923224738    0.575802504489    0.000000000000
NA   -4.116837601753   -2.767806495511    0.000000000000
