7

 H    0.917636799272    2.886652047145    0.000000000000
 H    2.457195799272    2.977631047145    0.902247000000
 H    2.457195799272    2.977631047145   -0.902247000000
 C    1.973384799272    2.581111047145    0.000000000000
 S    1.973384799272    0.748385047145    0.000000000000
 H    3.313967799272    0.591994047145    0.000000000000
NA   -4.175395567598   -2.801614952855    0.000000000000
