7

 H    1.057859671941    2.967609760427    0.000000000000
 H    2.597418671941    3.058588760427    0.902247000000
 H    2.597418671941    3.058588760427   -0.902247000000
 C    2.113607671941    2.662068760427    0.000000000000
 S    2.113607671941    0.829342760427    0.000000000000
 H    3.454190671941    0.672951760427    0.000000000000
NA   -4.468185396821   -2.970657239573    0.000000000000
