7

 H    1.113948821009    2.999992845740    0.000000000000
 H    2.653507821009    3.090971845740    0.902247000000
 H    2.653507821009    3.090971845740   -0.902247000000
 C    2.169696821009    2.694451845740    0.000000000000
 S    2.169696821009    0.861725845740    0.000000000000
 H    3.510279821009    0.705334845740    0.000000000000
NA   -4.585301328510   -3.038274154260    0.000000000000
