7

 H    1.338305417279    3.129525186991    0.000000000000
 H    2.877864417279    3.220504186991    0.902247000000
 H    2.877864417279    3.220504186991   -0.902247000000
 C    2.394053417279    2.823984186991    0.000000000000
 S    2.394053417279    0.991258186991    0.000000000000
 H    3.734636417279    0.834867186991    0.000000000000
NA   -5.053765055267   -3.308741813009    0.000000000000
