7

 H    1.534617439016    3.242865985586    0.000000000000
 H    3.074176439016    3.333844985586    0.902247000000
 H    3.074176439016    3.333844985586   -0.902247000000
 C    2.590365439016    2.937324985586    0.000000000000
 S    2.590365439016    1.104598985586    0.000000000000
 H    3.930948439016    0.948207985586    0.000000000000
NA   -5.463670816179   -3.545401014414    0.000000000000
