7

 H    1.562662013550    3.259057528243    0.000000000000
 H    3.102221013550    3.350036528243    0.902247000000
 H    3.102221013550    3.350036528243   -0.902247000000
 C    2.618410013550    2.953516528243    0.000000000000
 S    2.618410013550    1.120790528243    0.000000000000
 H    3.958993013550    0.964399528243    0.000000000000
NA   -5.522228782024   -3.579209471757    0.000000000000
