7

 H    1.590706588084    3.275249070899    0.000000000000
 H    3.130265588084    3.366228070899    0.902247000000
 H    3.130265588084    3.366228070899   -0.902247000000
 C    2.646454588084    2.969708070899    0.000000000000
 S    2.646454588084    1.136982070899    0.000000000000
 H    3.987037588084    0.980591070899    0.000000000000
NA   -5.580786747869   -3.613017929101    0.000000000000
