7

 H    1.674840311685    3.323823698868    0.000000000000
 H    3.214399311685    3.414802698868    0.902247000000
 H    3.214399311685    3.414802698868   -0.902247000000
 C    2.730588311685    3.018282698868    0.000000000000
 S    2.730588311685    1.185556698868    0.000000000000
 H    4.071171311685    1.029165698868    0.000000000000
NA   -5.756460645402   -3.714443301132    0.000000000000
