7

 H    1.702884886219    3.340015241525    0.000000000000
 H    3.242443886219    3.430994241525    0.902247000000
 H    3.242443886219    3.430994241525   -0.902247000000
 C    2.758632886219    3.034474241525    0.000000000000
 S    2.758632886219    1.201748241525    0.000000000000
 H    4.099215886219    1.045357241525    0.000000000000
NA   -5.815018611247   -3.748251758475    0.000000000000
