17

 N   -1.363885046145   -1.229225722287    0.202635082663
 C   -0.153696979301   -0.574019518611    0.206596706631
 N    1.079715435002   -1.172697213073    0.218634991536
 C    2.050138635058   -0.282521071462    0.206762534563
 N    1.847061797645    1.079117062052    0.199927374221
 H    2.650888922896    1.699077601807    0.117939351799
 N    3.375593389295   -0.701195793142    0.128415231328
 H    4.030129594627   -0.169392568742    0.696056008058
 H    3.454398476686   -1.701895937077    0.289998569317
 C    0.587788055328    1.765150765583    0.212881160898
 O    0.560207686223    2.993323850360    0.208793032470
 C   -0.484997070648    0.791457376309    0.219082358838
 N   -1.856070372417    0.977788421622    0.219007174122
 C   -2.349593866928   -0.260814592423    0.208677074457
 H   -3.407091780196   -0.514961214255    0.205730430031
 H   -1.488982042676   -2.235808807519    0.193975531632
 K   -1.365367250593   -1.220441902956   -0.797325240344
