17

 N   -1.363854652360   -1.229405841515    0.223140067416
 C   -0.153666585516   -0.574199637839    0.227101691384
 N    1.079745828787   -1.172877332301    0.239139976289
 C    2.050169028843   -0.282701190690    0.227267519316
 N    1.847092191430    1.078936942824    0.220432358974
 H    2.650919316681    1.698897482579    0.138444336552
 N    3.375623783080   -0.701375912370    0.148920216081
 H    4.030159988412   -0.169572687970    0.716560992811
 H    3.454428870471   -1.702076056305    0.310503554070
 C    0.587818449113    1.764970646355    0.233386145651
 O    0.560238080008    2.993143731132    0.229298017223
 C   -0.484966676863    0.791277257081    0.239587343591
 N   -1.856039978632    0.977608302394    0.239512158875
 C   -2.349563473143   -0.260994711651    0.229182059210
 H   -3.407061386411   -0.515141333483    0.226235414784
 H   -1.488951648891   -2.235988926747    0.214480516385
 K   -1.365485077252   -1.219743640251   -0.876816287892
