17

 N   -1.363824258574   -1.229585960743    0.243645052169
 C   -0.153636191730   -0.574379757067    0.247606676137
 N    1.079776222573   -1.173057451529    0.259644961042
 C    2.050199422629   -0.282881309918    0.247772504069
 N    1.847122585216    1.078756823596    0.240937343727
 H    2.650949710467    1.698717363351    0.158949321305
 N    3.375654176866   -0.701556031598    0.169425200834
 H    4.030190382198   -0.169752807198    0.737065977564
 H    3.454459264257   -1.702256175533    0.331008538823
 C    0.587848842899    1.764790527127    0.253891130404
 O    0.560268473794    2.992963611904    0.249803001976
 C   -0.484936283077    0.791097137853    0.260092328344
 N   -1.856009584846    0.977428183166    0.260017143628
 C   -2.349533079357   -0.261174830879    0.249687043963
 H   -3.407030992625   -0.515321452711    0.246740399537
 H   -1.488921255105   -2.236169045975    0.234985501138
 K   -1.365602903911   -1.219045377546   -0.956307335440
