17

 N   -1.363793864789   -1.229766079971    0.264150036921
 C   -0.153605797945   -0.574559876295    0.268111660889
 N    1.079806616358   -1.173237570757    0.280149945794
 C    2.050229816414   -0.283061429146    0.268277488821
 N    1.847152979001    1.078576704368    0.261442328479
 H    2.650980104252    1.698537244123    0.179454306057
 N    3.375684570651   -0.701736150826    0.189930185586
 H    4.030220775983   -0.169932926426    0.757570962316
 H    3.454489658042   -1.702436294761    0.351513523575
 C    0.587879236684    1.764610407899    0.274396115156
 O    0.560298867579    2.992783492676    0.270307986728
 C   -0.484905889292    0.790917018625    0.280597313096
 N   -1.855979191061    0.977248063938    0.280522128380
 C   -2.349502685572   -0.261354950107    0.270192028715
 H   -3.407000598840   -0.515501571939    0.267245384289
 H   -1.488890861320   -2.236349165203    0.255490485890
 K   -1.365720730570   -1.218347114841   -1.035798382987
