17

 N   -1.363641895861   -1.230666676111    0.366674960686
 C   -0.153453829017   -0.575460472435    0.370636584654
 N    1.079958585286   -1.174138166897    0.382674869559
 C    2.050381785342   -0.283962025286    0.370802412586
 N    1.847304947929    1.077676108228    0.363967252244
 H    2.651132073180    1.697636647983    0.281979229822
 N    3.375836539579   -0.702636746966    0.292455109351
 H    4.030372744911   -0.170833522566    0.860095886081
 H    3.454641626970   -1.703336890901    0.454038447340
 C    0.588031205612    1.763709811759    0.376921038921
 O    0.560450836507    2.991882896536    0.372832910493
 C   -0.484753920364    0.790016422485    0.383122236861
 N   -1.855827222133    0.976347467798    0.383047052145
 C   -2.349350716644   -0.262255546247    0.372716952480
 H   -3.406848629912   -0.516402168079    0.369770308054
 H   -1.488738892392   -2.237249761343    0.358015409655
 K   -1.366309863866   -1.214855801316   -1.433253620726
