17

 N   -1.363581108290   -1.231026914567    0.407684930192
 C   -0.153393041446   -0.575820710891    0.411646554160
 N    1.080019372857   -1.174498405353    0.423684839065
 C    2.050442572913   -0.284322263742    0.411812382092
 N    1.847365735500    1.077315869772    0.404977221750
 H    2.651192860751    1.697276409527    0.322989199328
 N    3.375897327150   -0.702996985422    0.333465078857
 H    4.030433532482   -0.171193761022    0.901105855587
 H    3.454702414541   -1.703697129357    0.495048416846
 C    0.588091993183    1.763349573303    0.417931008427
 O    0.560511624078    2.991522658080    0.413842879999
 C   -0.484693132793    0.789656184029    0.424132206367
 N   -1.855766434562    0.975987229342    0.424057021651
 C   -2.349289929073   -0.262615784703    0.413726921986
 H   -3.406787842341   -0.516762406535    0.410780277560
 H   -1.488678104821   -2.237609999799    0.399025379161
 K   -1.366545517185   -1.213459275906   -1.592235715822
