17

 N   -1.363550714505   -1.231207033795    0.428189914945
 C   -0.153362647661   -0.576000830119    0.432151538913
 N    1.080049766642   -1.174678524581    0.444189823818
 C    2.050472966698   -0.284502382970    0.432317366845
 N    1.847396129285    1.077135750544    0.425482206503
 H    2.651223254536    1.697096290299    0.343494184081
 N    3.375927720935   -0.703177104650    0.353970063610
 H    4.030463926267   -0.171373880250    0.921610840340
 H    3.454732808326   -1.703877248585    0.515553401599
 C    0.588122386968    1.763169454075    0.438435993180
 O    0.560542017863    2.991342538852    0.434347864752
 C   -0.484662739008    0.789476064801    0.444637191120
 N   -1.855736040777    0.975807110114    0.444562006404
 C   -2.349259535288   -0.262795903931    0.434231906739
 H   -3.406757448556   -0.516942525763    0.431285262313
 H   -1.488647711036   -2.237790119027    0.419530363914
 K   -1.366663343844   -1.212761013201   -1.671726763369
