17

 N   -1.363246776649   -1.233008226076    0.633239762474
 C   -0.153058709805   -0.577802022400    0.637201386442
 N    1.080353704498   -1.176479716862    0.649239671347
 C    2.050776904554   -0.286303575251    0.637367214374
 N    1.847700067141    1.075334558263    0.630532054032
 H    2.651527192392    1.695295098018    0.548544031610
 N    3.376231658791   -0.704978296931    0.559019911139
 H    4.030767864123   -0.173175072531    1.126660687869
 H    3.455036746182   -1.705678440866    0.720603249128
 C    0.588426324824    1.761368261794    0.643485840709
 O    0.560845955719    2.989541346571    0.639397712281
 C   -0.484358801152    0.787674872520    0.649687038649
 N   -1.855432102921    0.974005917833    0.649611853933
 C   -2.348955597432   -0.264597096212    0.639281754268
 H   -3.406453510700   -0.518743718044    0.636335109842
 H   -1.488343773180   -2.239591311308    0.624580211443
 K   -1.367841610436   -1.205778386151   -2.466637238847
