17

 N   -1.363216382864   -1.233188345304    0.653744747227
 C   -0.153028316020   -0.577982141628    0.657706371195
 N    1.080384098283   -1.176659836090    0.669744656100
 C    2.050807298339   -0.286483694479    0.657872199127
 N    1.847730460926    1.075154439035    0.651037038785
 H    2.651557586177    1.695114978790    0.569049016363
 N    3.376262052576   -0.705158416159    0.579524895892
 H    4.030798257908   -0.173355191759    1.147165672622
 H    3.455067139967   -1.705858560094    0.741108233881
 C    0.588456718609    1.761188142566    0.663990825462
 O    0.560876349504    2.989361227343    0.659902697034
 C   -0.484328407367    0.787494753292    0.670192023402
 N   -1.855401709136    0.973825798605    0.670116838686
 C   -2.348925203647   -0.264777215440    0.659786739021
 H   -3.406423116915   -0.518923837272    0.656840094595
 H   -1.488313379395   -2.239771430536    0.645085196196
 K   -1.367959437095   -1.205080123446   -2.546128286395
