17

 N   -1.363094807722   -1.233908822216    0.735764686239
 C   -0.152906740878   -0.578702618540    0.739726310207
 N    1.080505673425   -1.177380313002    0.751764595112
 C    2.050928873481   -0.287204171391    0.739892138139
 N    1.847852036068    1.074433962123    0.733056977797
 H    2.651679161319    1.694394501878    0.651068955375
 N    3.376383627718   -0.705878893071    0.661544834904
 H    4.030919833050   -0.174075668671    1.229185611634
 H    3.455188715109   -1.706579037006    0.823128172893
 C    0.588578293751    1.760467665654    0.746010764474
 O    0.560997924646    2.988640750431    0.741922636046
 C   -0.484206832225    0.786774276380    0.752211962414
 N   -1.855280133994    0.973105321693    0.752136777698
 C   -2.348803628505   -0.265497692352    0.741806678033
 H   -3.406301541773   -0.519644314184    0.738860033607
 H   -1.488191804253   -2.240491907448    0.727105135208
 K   -1.368430743732   -1.202287072626   -2.864092476586
