17

 N   -1.362942838794   -1.234809418356    0.838289610004
 C   -0.152754771950   -0.579603214680    0.842251233972
 N    1.080657642353   -1.178280909142    0.854289518877
 C    2.051080842409   -0.288104767531    0.842417061904
 N    1.848004004996    1.073533365983    0.835581901562
 H    2.651831130247    1.693493905738    0.753593879140
 N    3.376535596646   -0.706779489211    0.764069758669
 H    4.031071801978   -0.174976264811    1.331710535399
 H    3.455340684037   -1.707479633146    0.925653096658
 C    0.588730262679    1.759567069514    0.848535688239
 O    0.561149893574    2.987740154291    0.844447559811
 C   -0.484054863297    0.785873680240    0.854736886179
 N   -1.855128165066    0.972204725553    0.854661701463
 C   -2.348651659577   -0.266398288492    0.844331601798
 H   -3.406149572845   -0.520544910324    0.841384957372
 H   -1.488039835325   -2.241392503588    0.829630058973
 K   -1.369019877028   -1.198795759101   -3.261547714324
