17

 N   -1.362912445009   -1.234989537584    0.858794594757
 C   -0.152724378165   -0.579783333908    0.862756218725
 N    1.080688036138   -1.178461028370    0.874794503630
 C    2.051111236194   -0.288284886759    0.862922046657
 N    1.848034398781    1.073353246755    0.856086886315
 H    2.651861524032    1.693313786510    0.774098863893
 N    3.376565990431   -0.706959608439    0.784574743422
 H    4.031102195763   -0.175156384039    1.352215520152
 H    3.455371077822   -1.707659752374    0.946158081411
 C    0.588760656464    1.759386950286    0.869040672992
 O    0.561180287359    2.987560035063    0.864952544564
 C   -0.484024469512    0.785693561012    0.875241870932
 N   -1.855097771281    0.972024606325    0.875166686216
 C   -2.348621265792   -0.266578407720    0.864836586551
 H   -3.406119179060   -0.520725029552    0.861889942125
 H   -1.488009441540   -2.241572622816    0.850135043726
 K   -1.369137703687   -1.198097496396   -3.341038761872
