17

 N   -1.362851657438   -1.235349776040    0.899804564262
 C   -0.152663590594   -0.580143572364    0.903766188230
 N    1.080748823709   -1.178821266826    0.915804473135
 C    2.051172023765   -0.288645125215    0.903932016162
 N    1.848095186352    1.072993008299    0.897096855820
 H    2.651922311603    1.692953548054    0.815108833398
 N    3.376626778002   -0.707319846895    0.825584712927
 H    4.031162983334   -0.175516622495    1.393225489657
 H    3.455431865393   -1.708019990830    0.987168050916
 C    0.588821444035    1.759026711830    0.910050642497
 O    0.561241074930    2.987199796607    0.905962514069
 C   -0.483963681941    0.785333322556    0.916251840437
 N   -1.855036983710    0.971664367869    0.916176655721
 C   -2.348560478221   -0.266938646176    0.905846556056
 H   -3.406058391489   -0.521085268008    0.902899911630
 H   -1.487948653969   -2.241932861272    0.891145013231
 K   -1.369373357006   -1.196700970986   -3.500020856968
