17

 N   -1.362760476081   -1.235890133724    0.961319518521
 C   -0.152572409237   -0.580683930048    0.965281142489
 N    1.080840005066   -1.179361624510    0.977319427394
 C    2.051263205122   -0.289185482899    0.965446970421
 N    1.848186367709    1.072452650615    0.958611810079
 H    2.652013492960    1.692413190370    0.876623787657
 N    3.376717959359   -0.707860204579    0.887099667186
 H    4.031254164691   -0.176056980179    1.454740443916
 H    3.455523046750   -1.708560348514    1.048683005175
 C    0.588912625392    1.758486354146    0.971565596756
 O    0.561332256287    2.986659438923    0.967477468328
 C   -0.483872500584    0.784792964872    0.977766794696
 N   -1.854945802353    0.971124010185    0.977691609980
 C   -2.348469296864   -0.267479003860    0.967361510315
 H   -3.405967210132   -0.521625625692    0.964414865889
 H   -1.487857472612   -2.242473218956    0.952659967490
 K   -1.369726836983   -1.194606182871   -3.738493999611
