17

 N   -1.362730082295   -1.236070252952    0.981824503274
 C   -0.152542015451   -0.580864049276    0.985786127242
 N    1.080870398852   -1.179541743738    0.997824412147
 C    2.051293598908   -0.289365602127    0.985951955174
 N    1.848216761495    1.072272531387    0.979116794832
 H    2.652043886746    1.692233071142    0.897128772410
 N    3.376748353145   -0.708040323807    0.907604651939
 H    4.031284558477   -0.176237099407    1.475245428669
 H    3.455553440536   -1.708740467742    1.069187989928
 C    0.588943019178    1.758306234918    0.992070581509
 O    0.561362650073    2.986479319695    0.987982453081
 C   -0.483842106798    0.784612845644    0.998271779449
 N   -1.854915408567    0.970943890957    0.998196594733
 C   -2.348438903078   -0.267659123088    0.987866495068
 H   -3.405936816346   -0.521805744920    0.984919850642
 H   -1.487827078826   -2.242653338184    0.973164952243
 K   -1.369844663642   -1.193907920166   -3.817985047159
