17

 N   -1.362669294724   -1.236430491408    1.022834472780
 C   -0.152481227880   -0.581224287732    1.026796096748
 N    1.080931186423   -1.179901982194    1.038834381653
 C    2.051354386479   -0.289725840583    1.026961924680
 N    1.848277549066    1.071912292931    1.020126764338
 H    2.652104674317    1.691872832686    0.938138741916
 N    3.376809140716   -0.708400562263    0.948614621445
 H    4.031345346048   -0.176597337863    1.516255398175
 H    3.455614228107   -1.709100706198    1.110197959434
 C    0.589003806749    1.757945996462    1.033080551015
 O    0.561423437644    2.986119081239    1.028992422587
 C   -0.483781319227    0.784252607188    1.039281748955
 N   -1.854854620996    0.970583652501    1.039206564239
 C   -2.348378115507   -0.268019361544    1.028876464574
 H   -3.405876028775   -0.522165983376    1.025929820148
 H   -1.487766291255   -2.243013576640    1.014174921749
 K   -1.370080316961   -1.192511394755   -3.976967142254
