17

 N   -1.362638900939   -1.236610610637    1.043339457533
 C   -0.152450834095   -0.581404406961    1.047301081501
 N    1.080961580208   -1.180082101423    1.059339366406
 C    2.051384780264   -0.289905959812    1.047466909433
 N    1.848307942851    1.071732173702    1.040631749091
 H    2.652135068102    1.691692713457    0.958643726669
 N    3.376839534501   -0.708580681492    0.969119606198
 H    4.031375739833   -0.176777457092    1.536760382928
 H    3.455644621892   -1.709280825427    1.130702944187
 C    0.589034200534    1.757765877233    1.053585535768
 O    0.561453831429    2.985938962010    1.049497407340
 C   -0.483750925442    0.784072487959    1.059786733708
 N   -1.854824227211    0.970403533272    1.059711548992
 C   -2.348347721722   -0.268199480773    1.049381449327
 H   -3.405845634990   -0.522346102605    1.046434804901
 H   -1.487735897470   -2.243193695869    1.034679906502
 K   -1.370198143620   -1.191813132050   -4.056458189802
