17

 N   -1.362547719582   -1.237150968321    1.104854411792
 C   -0.152359652738   -0.581944764645    1.108816035760
 N    1.081052761565   -1.180622459107    1.120854320665
 C    2.051475961621   -0.290446317496    1.108981863692
 N    1.848399124208    1.071191816018    1.102146703350
 H    2.652226249459    1.691152355773    1.020158680928
 N    3.376930715858   -0.709121039176    1.030634560457
 H    4.031466921190   -0.177317814776    1.598275337187
 H    3.455735803249   -1.709821183111    1.192217898446
 C    0.589125381891    1.757225519549    1.115100490027
 O    0.561545012786    2.985398604326    1.111012361599
 C   -0.483659744085    0.783532130275    1.121301687967
 N   -1.854733045854    0.969863175588    1.121226503251
 C   -2.348256540365   -0.268739838457    1.110896403586
 H   -3.405754453633   -0.522886460289    1.107949759160
 H   -1.487644716113   -2.243734053553    1.096194860761
 K   -1.370551623598   -1.189718343935   -4.294931332445
