17

 N   -1.362517325797   -1.237331087549    1.125359396545
 C   -0.152329258953   -0.582124883873    1.129321020513
 N    1.081083155350   -1.180802578335    1.141359305418
 C    2.051506355406   -0.290626436724    1.129486848445
 N    1.848429517993    1.071011696790    1.122651688103
 H    2.652256643244    1.690972236545    1.040663665681
 N    3.376961109643   -0.709301158404    1.051139545210
 H    4.031497314975   -0.177497934004    1.618780321940
 H    3.455766197034   -1.710001302339    1.212722883199
 C    0.589155775676    1.757045400321    1.135605474780
 O    0.561575406571    2.985218485098    1.131517346352
 C   -0.483629350300    0.783352011047    1.141806672720
 N   -1.854702652069    0.969683056360    1.141731488004
 C   -2.348226146580   -0.268919957685    1.131401388339
 H   -3.405724059848   -0.523066579517    1.128454743913
 H   -1.487614322328   -2.243914172781    1.116699845514
 K   -1.370669450257   -1.189020081230   -4.374422379993
