17

 N   -1.362456538226   -1.237691326005    1.166369366050
 C   -0.152268471382   -0.582485122329    1.170330990018
 N    1.081143942921   -1.181162816791    1.182369274923
 C    2.051567142977   -0.290986675180    1.170496817950
 N    1.848490305564    1.070651458334    1.163661657608
 H    2.652317430815    1.690611998089    1.081673635186
 N    3.377021897214   -0.709661396860    1.092149514715
 H    4.031558102546   -0.177858172460    1.659790291445
 H    3.455826984605   -1.710361540795    1.253732852704
 C    0.589216563247    1.756685161865    1.176615444285
 O    0.561636194142    2.984858246642    1.172527315857
 C   -0.483568562729    0.782991772591    1.182816642225
 N   -1.854641864498    0.969322817904    1.182741457509
 C   -2.348165359009   -0.269280196141    1.172411357844
 H   -3.405663272277   -0.523426817973    1.169464713418
 H   -1.487553534757   -2.244274411237    1.157709815019
 K   -1.370905103575   -1.187623555820   -4.533404475089
