17

 N   -1.362395750655   -1.238051564461    1.207379335556
 C   -0.152207683811   -0.582845360785    1.211340959524
 N    1.081204730492   -1.181523055247    1.223379244429
 C    2.051627930548   -0.291346913636    1.211506787456
 N    1.848551093135    1.070291219878    1.204671627114
 H    2.652378218386    1.690251759633    1.122683604692
 N    3.377082684785   -0.710021635316    1.133159484221
 H    4.031618890117   -0.178218410916    1.700800260951
 H    3.455887772176   -1.710721779251    1.294742822210
 C    0.589277350818    1.756324923409    1.217625413791
 O    0.561696981713    2.984498008186    1.213537285363
 C   -0.483507775158    0.782631534135    1.223826611731
 N   -1.854581076927    0.968962579448    1.223751427015
 C   -2.348104571438   -0.269640434597    1.213421327350
 H   -3.405602484706   -0.523787056429    1.210474682924
 H   -1.487492747186   -2.244634649693    1.198719784525
 K   -1.371140756894   -1.186227030410   -4.692386570184
