17

 N   -1.362334963084   -1.238411802917    1.248389305062
 C   -0.152146896240   -0.583205599241    1.252350929030
 N    1.081265518063   -1.181883293703    1.264389213935
 C    2.051688718119   -0.291707152092    1.252516756962
 N    1.848611880706    1.069930981422    1.245681596620
 H    2.652439005957    1.689891521177    1.163693574198
 N    3.377143472356   -0.710381873772    1.174169453727
 H    4.031679677688   -0.178578649372    1.741810230457
 H    3.455948559747   -1.711082017707    1.335752791716
 C    0.589338138389    1.755964684953    1.258635383297
 O    0.561757769284    2.984137769730    1.254547254869
 C   -0.483446987587    0.782271295679    1.264836581237
 N   -1.854520289356    0.968602340992    1.264761396521
 C   -2.348043783867   -0.270000673053    1.254431296856
 H   -3.405541697135   -0.524147294885    1.251484652430
 H   -1.487431959615   -2.244994888149    1.239729754031
 K   -1.371376410212   -1.184830505000   -4.851368665280
