17

 N   -1.362304569298   -1.238591922145    1.268894289815
 C   -0.152116502454   -0.583385718469    1.272855913783
 N    1.081295911849   -1.182063412931    1.284894198688
 C    2.051719111905   -0.291887271320    1.273021741715
 N    1.848642274492    1.069750862194    1.266186581373
 H    2.652469399743    1.689711401949    1.184198558951
 N    3.377173866142   -0.710561993000    1.194674438480
 H    4.031710071474   -0.178758768600    1.762315215210
 H    3.455978953533   -1.711262136935    1.356257776469
 C    0.589368532175    1.755784565725    1.279140368050
 O    0.561788163070    2.983957650502    1.275052239622
 C   -0.483416593801    0.782091176451    1.285341565990
 N   -1.854489895570    0.968422221764    1.285266381274
 C   -2.348013390081   -0.270180792281    1.274936281609
 H   -3.405511303349   -0.524327414113    1.271989637183
 H   -1.487401565829   -2.245175007377    1.260234738784
 K   -1.371494236871   -1.184132242295   -4.930859712827
