17

 N   -1.362243781727   -1.238952160601    1.309904259321
 C   -0.152055714883   -0.583745956925    1.313865883289
 N    1.081356699420   -1.182423651387    1.325904168194
 C    2.051779899476   -0.292247509776    1.314031711221
 N    1.848703062063    1.069390623738    1.307196550879
 H    2.652530187314    1.689351163493    1.225208528457
 N    3.377234653713   -0.710922231456    1.235684407986
 H    4.031770859045   -0.179119007056    1.803325184716
 H    3.456039741104   -1.711622375391    1.397267745975
 C    0.589429319746    1.755424327269    1.320150337556
 O    0.561848950641    2.983597412046    1.316062209128
 C   -0.483355806230    0.781730937995    1.326351535496
 N   -1.854429107999    0.968061983308    1.326276350780
 C   -2.347952602510   -0.270541030737    1.315946251115
 H   -3.405450515778   -0.524687652569    1.312999606689
 H   -1.487340778258   -2.245535245833    1.301244708290
 K   -1.371729890190   -1.182735716885   -5.089841807923
