17

 N   -1.362182994156   -1.239312399057    1.350914228827
 C   -0.151994927312   -0.584106195381    1.354875852795
 N    1.081417486991   -1.182783889843    1.366914137700
 C    2.051840687047   -0.292607748232    1.355041680727
 N    1.848763849634    1.069030385282    1.348206520385
 H    2.652590974885    1.688990925037    1.266218497963
 N    3.377295441284   -0.711282469912    1.276694377492
 H    4.031831646616   -0.179479245512    1.844335154222
 H    3.456100528675   -1.711982613847    1.438277715481
 C    0.589490107317    1.755064088813    1.361160307062
 O    0.561909738212    2.983237173590    1.357072178634
 C   -0.483295018659    0.781370699539    1.367361505002
 N   -1.854368320428    0.967701744852    1.367286320286
 C   -2.347891814939   -0.270901269193    1.356956220621
 H   -3.405389728207   -0.525047891025    1.354009576195
 H   -1.487279990687   -2.245895484289    1.342254677796
 K   -1.371965543508   -1.181339191475   -5.248823903018
