17

 N   -1.362152600370   -1.239492518285    1.371419213580
 C   -0.151964533526   -0.584286314609    1.375380837548
 N    1.081447880777   -1.182964009071    1.387419122453
 C    2.051871080833   -0.292787867460    1.375546665480
 N    1.848794243420    1.068850266054    1.368711505138
 H    2.652621368671    1.688810805809    1.286723482716
 N    3.377325835070   -0.711462589140    1.297199362245
 H    4.031862040402   -0.179659364740    1.864840138975
 H    3.456130922461   -1.712162733075    1.458782700234
 C    0.589520501103    1.754883969585    1.381665291815
 O    0.561940131998    2.983057054362    1.377577163387
 C   -0.483264624873    0.781190580311    1.387866489755
 N   -1.854337926642    0.967521625624    1.387791305039
 C   -2.347861421153   -0.271081388421    1.377461205374
 H   -3.405359334421   -0.525228010253    1.374514560948
 H   -1.487249596901   -2.246075603517    1.362759662549
 K   -1.372083370167   -1.180640928770   -5.328314950566
