17

 N   -1.362122206585   -1.239672637513    1.391924198333
 C   -0.151934139741   -0.584466433837    1.395885822301
 N    1.081478274562   -1.183144128299    1.407924107206
 C    2.051901474618   -0.292967986688    1.396051650233
 N    1.848824637205    1.068670146826    1.389216489891
 H    2.652651762456    1.688630686581    1.307228467469
 N    3.377356228855   -0.711642708368    1.317704346998
 H    4.031892434187   -0.179839483968    1.885345123728
 H    3.456161316246   -1.712342852303    1.479287684987
 C    0.589550894888    1.754703850357    1.402170276568
 O    0.561970525783    2.982876935134    1.398082148140
 C   -0.483234231088    0.781010461083    1.408371474508
 N   -1.854307532857    0.967341506396    1.408296289792
 C   -2.347831027368   -0.271261507649    1.397966190127
 H   -3.405328940636   -0.525408129481    1.395019545701
 H   -1.487219203116   -2.246255722745    1.383264647302
 K   -1.372201196826   -1.179942666065   -5.407805998114
