17

 N   -1.362061419014   -1.240032875969    1.432934167839
 C   -0.151873352170   -0.584826672293    1.436895791807
 N    1.081539062133   -1.183504366755    1.448934076712
 C    2.051962262189   -0.293328225144    1.437061619739
 N    1.848885424776    1.068309908370    1.430226459397
 H    2.652712550027    1.688270448125    1.348238436975
 N    3.377417016426   -0.712002946824    1.358714316504
 H    4.031953221758   -0.180199722424    1.926355093234
 H    3.456222103817   -1.712703090759    1.520297654493
 C    0.589611682459    1.754343611901    1.443180246074
 O    0.562031313354    2.982516696678    1.439092117646
 C   -0.483173443517    0.780650222627    1.449381444014
 N   -1.854246745286    0.966981267940    1.449306259298
 C   -2.347770239797   -0.271621746105    1.438976159633
 H   -3.405268153065   -0.525768367937    1.436029515207
 H   -1.487158415545   -2.246615961201    1.424274616808
 K   -1.372436850145   -1.178546140655   -5.566788093209
