17

 N   -1.362031025228   -1.240212995197    1.453439152592
 C   -0.151842958384   -0.585006791521    1.457400776560
 N    1.081569455919   -1.183684485983    1.469439061465
 C    2.051992655975   -0.293508344372    1.457566604492
 N    1.848915818562    1.068129789142    1.450731444150
 H    2.652742943813    1.688090328897    1.368743421728
 N    3.377447410212   -0.712183066052    1.379219301257
 H    4.031983615544   -0.180379841652    1.946860077987
 H    3.456252497603   -1.712883209987    1.540802639246
 C    0.589642076245    1.754163492673    1.463685230827
 O    0.562061707140    2.982336577450    1.459597102399
 C   -0.483143049731    0.780470103399    1.469886428767
 N   -1.854216351500    0.966801148712    1.469811244051
 C   -2.347739846011   -0.271801865333    1.459481144386
 H   -3.405237759279   -0.525948487165    1.456534499960
 H   -1.487128021759   -2.246796080429    1.444779601561
 K   -1.372554676804   -1.177847877950   -5.646279140757
