17

 N   -1.362000631443   -1.240393114425    1.473944137344
 C   -0.151812564599   -0.585186910749    1.477905761312
 N    1.081599849704   -1.183864605211    1.489944046217
 C    2.052023049760   -0.293688463600    1.478071589244
 N    1.848946212347    1.067949669914    1.471236428902
 H    2.652773337598    1.687910209669    1.389248406480
 N    3.377477803997   -0.712363185280    1.399724286009
 H    4.032014009329   -0.180559960880    1.967365062739
 H    3.456282891388   -1.713063329215    1.561307623998
 C    0.589672470030    1.753983373445    1.484190215579
 O    0.562092100925    2.982156458222    1.480102087151
 C   -0.483112655946    0.780289984171    1.490391413519
 N   -1.854185957715    0.966621029484    1.490316228803
 C   -2.347709452226   -0.271981984561    1.479986129138
 H   -3.405207365494   -0.526128606393    1.477039484712
 H   -1.487097627974   -2.246976199657    1.465284586313
 K   -1.372672503463   -1.177149615245   -5.725770188305
