17

 N   -1.361970237657   -1.240573233653    1.494449122097
 C   -0.151782170813   -0.585367029977    1.498410746065
 N    1.081630243490   -1.184044724439    1.510449030970
 C    2.052053443546   -0.293868582828    1.498576573997
 N    1.848976606133    1.067769550686    1.491741413655
 H    2.652803731384    1.687730090441    1.409753391233
 N    3.377508197783   -0.712543304508    1.420229270762
 H    4.032044403115   -0.180740080108    1.987870047492
 H    3.456313285174   -1.713243448443    1.581812608751
 C    0.589702863816    1.753803254217    1.504695200332
 O    0.562122494711    2.981976338994    1.500607071904
 C   -0.483082262160    0.780109864943    1.510896398272
 N   -1.854155563929    0.966440910256    1.510821213556
 C   -2.347679058440   -0.272162103789    1.500491113891
 H   -3.405176971708   -0.526308725621    1.497544469465
 H   -1.487067234188   -2.247156318885    1.485789571066
 K   -1.372790330122   -1.176451352540   -5.805261235853
