17

 N   -1.361879056301   -1.241113591337    1.555964076356
 C   -0.151690989457   -0.585907387661    1.559925700324
 N    1.081721424846   -1.184585082123    1.571963985229
 C    2.052144624902   -0.294408940512    1.560091528256
 N    1.849067787489    1.067229193002    1.553256367914
 H    2.652894912740    1.687189732757    1.471268345492
 N    3.377599379139   -0.713083662192    1.481744225021
 H    4.032135584471   -0.181280437792    2.049385001751
 H    3.456404466530   -1.713783806127    1.643327563010
 C    0.589794045172    1.753262896533    1.566210154591
 O    0.562213676067    2.981435981310    1.562122026163
 C   -0.482991080804    0.779569507259    1.572411352531
 N   -1.854064382573    0.965900552572    1.572336167815
 C   -2.347587877084   -0.272702461473    1.562006068150
 H   -3.405085790352   -0.526849083305    1.559059423724
 H   -1.486976052832   -2.247696676569    1.547304525325
 K   -1.373143810100   -1.174356564425   -6.043734378496
