17

 N   -1.361787874944   -1.241653949022    1.617479030615
 C   -0.151599808100   -0.586447745346    1.621440654583
 N    1.081812606203   -1.185125439808    1.633478939488
 C    2.052235806259   -0.294949298197    1.621606482515
 N    1.849158968846    1.066688835317    1.614771322173
 H    2.652986094097    1.686649375072    1.532783299751
 N    3.377690560496   -0.713624019877    1.543259179280
 H    4.032226765828   -0.181820795477    2.110899956010
 H    3.456495647887   -1.714324163812    1.704842517269
 C    0.589885226529    1.752722538848    1.627725108850
 O    0.562304857424    2.980895623625    1.623636980422
 C   -0.482899899447    0.779029149574    1.633926306790
 N   -1.853973201216    0.965360194887    1.633851122074
 C   -2.347496695727   -0.273242819158    1.623521022409
 H   -3.404994608995   -0.527389440990    1.620574377983
 H   -1.486884871475   -2.248237034254    1.608819479584
 K   -1.373497290078   -1.172261776310   -6.282207521139
