17

 N   -1.361757481159   -1.241834068250    1.637984015368
 C   -0.151569414315   -0.586627864574    1.641945639336
 N    1.081842999988   -1.185305559036    1.653983924241
 C    2.052266200044   -0.295129417425    1.642111467268
 N    1.849189362631    1.066508716089    1.635276306926
 H    2.653016487882    1.686469255844    1.553288284504
 N    3.377720954281   -0.713804139105    1.563764164033
 H    4.032257159613   -0.182000914705    2.131404940763
 H    3.456526041672   -1.714504283040    1.725347502022
 C    0.589915620314    1.752542419620    1.648230093603
 O    0.562335251209    2.980715504397    1.644141965175
 C   -0.482869505662    0.778849030346    1.654431291543
 N   -1.853942807431    0.965180075659    1.654356106827
 C   -2.347466301942   -0.273422938386    1.644026007162
 H   -3.404964215210   -0.527569560218    1.641079362736
 H   -1.486854477690   -2.248417153482    1.629324464337
 K   -1.373615116737   -1.171563513605   -6.361698568687
