17

 N   -1.361727087373   -1.242014187478    1.658489000121
 C   -0.151539020529   -0.586807983802    1.662450624089
 N    1.081873393774   -1.185485678264    1.674488908994
 C    2.052296593830   -0.295309536653    1.662616452021
 N    1.849219756417    1.066328596861    1.655781291679
 H    2.653046881668    1.686289136616    1.573793269257
 N    3.377751348067   -0.713984258333    1.584269148786
 H    4.032287553399   -0.182181033933    2.151909925516
 H    3.456556435458   -1.714684402268    1.745852486775
 C    0.589946014100    1.752362300392    1.668735078356
 O    0.562365644995    2.980535385169    1.664646949928
 C   -0.482839111876    0.778668911118    1.674936276296
 N   -1.853912413645    0.964999956431    1.674861091580
 C   -2.347435908156   -0.273603057614    1.664530991915
 H   -3.404933821424   -0.527749679446    1.661584347489
 H   -1.486824083904   -2.248597272710    1.649829449090
 K   -1.373732943396   -1.170865250900   -6.441189616235
