17

 N   -1.361666299802   -1.242374425934    1.699498969627
 C   -0.151478232958   -0.587168222258    1.703460593595
 N    1.081934181345   -1.185845916720    1.715498878500
 C    2.052357381401   -0.295669775109    1.703626421527
 N    1.849280543988    1.065968358405    1.696791261185
 H    2.653107669239    1.685928898160    1.614803238763
 N    3.377812135638   -0.714344496789    1.625279118292
 H    4.032348340970   -0.182541272389    2.192919895022
 H    3.456617223029   -1.715044640724    1.786862456281
 C    0.590006801671    1.752002061936    1.709745047862
 O    0.562426432566    2.980175146713    1.705656919434
 C   -0.482778324305    0.778308672662    1.715946245802
 N   -1.853851626074    0.964639717975    1.715871061086
 C   -2.347375120585   -0.273963296070    1.705540961421
 H   -3.404873033853   -0.528109917902    1.702594316995
 H   -1.486763296333   -2.248957511166    1.690839418596
 K   -1.373968596714   -1.169468725490   -6.600171711330
