17

 N   -1.361544724660   -1.243094902846    1.781518908638
 C   -0.151356657816   -0.587888699170    1.785480532606
 N    1.082055756487   -1.186566393632    1.797518817511
 C    2.052478956543   -0.296390252021    1.785646360538
 N    1.849402119130    1.065247881493    1.778811200196
 H    2.653229244381    1.685208421248    1.696823177774
 N    3.377933710780   -0.715064973701    1.707299057303
 H    4.032469916112   -0.183261749301    2.274939834033
 H    3.456738798171   -1.715765117636    1.868882395292
 C    0.590128376813    1.751281585024    1.791764986873
 O    0.562548007708    2.979454669801    1.787676858445
 C   -0.482656749163    0.777588195750    1.797966184813
 N   -1.853730050932    0.963919241063    1.797891000097
 C   -2.347253545443   -0.274683772982    1.787560900432
 H   -3.404751458711   -0.528830394814    1.784614256006
 H   -1.486641721191   -2.249677988078    1.772859357607
 K   -1.374439903351   -1.166675674670   -6.918135901521
