17

 N   -1.361514330874   -1.243275022074    1.802023893391
 C   -0.151326264030   -0.588068818398    1.805985517359
 N    1.082086150273   -1.186746512860    1.818023802264
 C    2.052509350329   -0.296570371249    1.806151345291
 N    1.849432512916    1.065067762265    1.799316184949
 H    2.653259638167    1.685028302020    1.717328162527
 N    3.377964104566   -0.715245092929    1.727804042056
 H    4.032500309898   -0.183441868529    2.295444818786
 H    3.456769191957   -1.715945236864    1.889387380045
 C    0.590158770599    1.751101465796    1.812269971626
 O    0.562578401494    2.979274550573    1.808181843198
 C   -0.482626355377    0.777408076522    1.818471169566
 N   -1.853699657146    0.963739121835    1.818395984850
 C   -2.347223151657   -0.274863892210    1.808065885185
 H   -3.404721064925   -0.529010514042    1.805119240759
 H   -1.486611327405   -2.249858107306    1.793364342360
 K   -1.374557730010   -1.165977411965   -6.997626949069
