17

 N   -1.361483937089   -1.243455141302    1.822528878144
 C   -0.151295870245   -0.588248937626    1.826490502112
 N    1.082116544058   -1.186926632088    1.838528787017
 C    2.052539744114   -0.296750490477    1.826656330044
 N    1.849462906701    1.064887643037    1.819821169702
 H    2.653290031952    1.684848182792    1.737833147280
 N    3.377994498351   -0.715425212157    1.748309026809
 H    4.032530703683   -0.183621987757    2.315949803539
 H    3.456799585742   -1.716125356092    1.909892364798
 C    0.590189164384    1.750921346568    1.832774956379
 O    0.562608795279    2.979094431345    1.828686827951
 C   -0.482595961592    0.777227957294    1.838976154319
 N   -1.853669263361    0.963559002607    1.838900969603
 C   -2.347192757872   -0.275044011438    1.828570869938
 H   -3.404690671140   -0.529190633270    1.825624225512
 H   -1.486580933620   -2.250038226534    1.813869327113
 K   -1.374675556670   -1.165279149260   -7.077117996617
