17

 N   -1.361392755732   -1.243995498986    1.884043832403
 C   -0.151204688888   -0.588789295310    1.888005456371
 N    1.082207725415   -1.187466989772    1.900043741276
 C    2.052630925471   -0.297290848161    1.888171284303
 N    1.849554088058    1.064347285353    1.881336123961
 H    2.653381213309    1.684307825108    1.799348101539
 N    3.378085679708   -0.715965569841    1.809823981068
 H    4.032621885040   -0.184162345441    2.377464757798
 H    3.456890767099   -1.716665713776    1.971407319057
 C    0.590280345741    1.750380988884    1.894289910638
 O    0.562699976636    2.978554073661    1.890201782210
 C   -0.482504780235    0.776687599610    1.900491108578
 N   -1.853578082004    0.963018644923    1.900415923862
 C   -2.347101576515   -0.275584369122    1.890085824197
 H   -3.404599489783   -0.529730990954    1.887139179771
 H   -1.486489752263   -2.250578584218    1.875384281372
 K   -1.375029036647   -1.163184361144   -7.315591139260
