17

 N   -1.361331968161   -1.244355737442    1.925053801909
 C   -0.151143901317   -0.589149533766    1.929015425877
 N    1.082268512986   -1.187827228228    1.941053710782
 C    2.052691713042   -0.297651086617    1.929181253809
 N    1.849614875629    1.063987046897    1.922346093467
 H    2.653442000880    1.683947586652    1.840358071045
 N    3.378146467279   -0.716325808297    1.850833950574
 H    4.032682672611   -0.184522583897    2.418474727304
 H    3.456951554670   -1.717025952232    2.012417288563
 C    0.590341133312    1.750020750428    1.935299880144
 O    0.562760764207    2.978193835205    1.931211751716
 C   -0.482443992664    0.776327361154    1.941501078084
 N   -1.853517294433    0.962658406467    1.941425893368
 C   -2.347040788944   -0.275944607578    1.931095793703
 H   -3.404538702212   -0.530091229410    1.928149149277
 H   -1.486428964692   -2.250938822674    1.916394250878
 K   -1.375264689966   -1.161787835734   -7.474573234355
