17

 N   -1.361301574376   -1.244535856670    1.945558786662
 C   -0.151113507532   -0.589329652994    1.949520410630
 N    1.082298906771   -1.188007347456    1.961558695535
 C    2.052722106827   -0.297831205845    1.949686238562
 N    1.849645269414    1.063806927669    1.942851078220
 H    2.653472394665    1.683767467424    1.860863055798
 N    3.378176861064   -0.716505927525    1.871338935327
 H    4.032713066396   -0.184702703125    2.438979712057
 H    3.456981948455   -1.717206071460    2.032922273316
 C    0.590371527097    1.749840631200    1.955804864897
 O    0.562791157992    2.978013715977    1.951716736469
 C   -0.482413598879    0.776147241926    1.962006062837
 N   -1.853486900648    0.962478287239    1.961930878121
 C   -2.347010395159   -0.276124726806    1.951600778456
 H   -3.404508308427   -0.530271348638    1.948654134030
 H   -1.486398570907   -2.251118941902    1.936899235631
 K   -1.375382516625   -1.161089573029   -7.554064281903
