17

 N   -1.361210393019   -1.245076214354    2.007073740921
 C   -0.151022326175   -0.589870010678    2.011035364889
 N    1.082390088128   -1.188547705140    2.023073649794
 C    2.052813288184   -0.298371563529    2.011201192821
 N    1.849736450771    1.063266569985    2.004366032479
 H    2.653563576022    1.683227109740    1.922378010057
 N    3.378268042421   -0.717046285209    1.932853889586
 H    4.032804247753   -0.185243060809    2.500494666316
 H    3.457073129812   -1.717746429144    2.094437227575
 C    0.590462708454    1.749300273516    2.017319819156
 O    0.562882339349    2.977473358293    2.013231690728
 C   -0.482322417522    0.775606884242    2.023521017096
 N   -1.853395719291    0.961937929555    2.023445832380
 C   -2.346919213802   -0.276665084490    2.013115732715
 H   -3.404417127070   -0.530811706322    2.010169088289
 H   -1.486307389550   -2.251659299586    1.998414189890
 K   -1.375735996602   -1.158994784914   -7.792537424546
