17

 N   -1.361179999234   -1.245256333582    2.027578725674
 C   -0.150991932390   -0.590050129906    2.031540349642
 N    1.082420481913   -1.188727824368    2.043578634547
 C    2.052843681969   -0.298551682757    2.031706177574
 N    1.849766844556    1.063086450757    2.024871017232
 H    2.653593969807    1.683046990512    1.942882994810
 N    3.378298436206   -0.717226404437    1.953358874339
 H    4.032834641538   -0.185423180037    2.520999651069
 H    3.457103523597   -1.717926548372    2.114942212328
 C    0.590493102239    1.749120154288    2.037824803909
 O    0.562912733134    2.977293239065    2.033736675481
 C   -0.482292023737    0.775426765014    2.044026001849
 N   -1.853365325506    0.961757810327    2.043950817133
 C   -2.346888820017   -0.276845203718    2.033620717468
 H   -3.404386733285   -0.530991825550    2.030674073042
 H   -1.486276995765   -2.251839418814    2.018919174643
 K   -1.375853823262   -1.158296522209   -7.872028472094
