26

 C   -5.390473407767   -0.008220772567    0.000000000000
 H   -6.482913407767   -0.010680772567    0.000000000000
 C   -4.680353407767    1.205839227433    0.000000000000
 H   -5.221493407767    2.156339227433    0.000000000000
 C   -4.674903407767   -1.219070772567    0.000000000000
 H   -5.211743407767   -2.172010772567    0.000000000000
 C   -3.274953407767    1.210639227433    0.000000000000
 H   -2.720703407767    2.153969227433    0.000000000000
 C   -3.269493407767   -1.217490772567    0.000000000000
 H   -2.710953407767   -2.158300772567    0.000000000000
 C   -2.544013407767   -0.001780772567    0.000000000000
 O   -1.195433407767    0.001229227433    0.000000000000
LI    0.169816592233   -0.000180772567    1.169840000000
LI    0.169816592233   -0.000180772567   -1.169840000000
 O    1.169816058919   -0.001213549896    0.000000000000
 C    2.518392679099    0.001805705356    0.000000000000
 C    3.243875084327    1.217522248226    0.000000000000
 H    2.685330667053    2.158333976646    0.000000000000
 C    4.649284192799    1.219105258576    0.000000000000
 H    5.186122754705    2.172044617062    0.000000000000
 C    5.364862873085    0.008253792697    0.000000000000
 H    6.457300095792    0.010717132692    0.000000000000
 C    4.654747697319   -1.205809861831    0.000000000000
 H    5.195893778042   -2.156309720757    0.000000000000
 C    3.249355910890   -1.210614717300    0.000000000000
 H    2.695105598228   -2.153950968599    0.000000000000
