26

 C   -5.436967135891   -0.008172754873    0.000000000000
 H   -6.529407135891   -0.010632754873    0.000000000000
 C   -4.726847135891    1.205887245127    0.000000000000
 H   -5.267987135891    2.156387245127    0.000000000000
 C   -4.721397135891   -1.219022754873    0.000000000000
 H   -5.258237135891   -2.171962754873    0.000000000000
 C   -3.321447135891    1.210687245127    0.000000000000
 H   -2.767197135891    2.154017245127    0.000000000000
 C   -3.315987135891   -1.217442754873    0.000000000000
 H   -2.757447135891   -2.158252754873    0.000000000000
 C   -2.590507135891   -0.001732754873    0.000000000000
 O   -1.241927135891    0.001277245127    0.000000000000
LI    0.123322864109   -0.000132754873    1.169840000000
LI    0.123322864109   -0.000132754873   -1.169840000000
 O    1.223322277462   -0.001268809935    0.000000000000
 C    2.571898897643    0.001750445318    0.000000000000
 C    3.297381302870    1.217466988187    0.000000000000
 H    2.738836885597    2.158278716607    0.000000000000
 C    4.702790411343    1.219049998537    0.000000000000
 H    5.239628973249    2.171989357023    0.000000000000
 C    5.418369091629    0.008198532659    0.000000000000
 H    6.510806314336    0.010661872653    0.000000000000
 C    4.708253915863   -1.205865121870    0.000000000000
 H    5.249399996586   -2.156364980796    0.000000000000
 C    3.302862129434   -1.210669977339    0.000000000000
 H    2.748611816772   -2.154006228637    0.000000000000
