26

 C   -5.483460864016   -0.008124737179    0.000000000000
 H   -6.575900864016   -0.010584737179    0.000000000000
 C   -4.773340864016    1.205935262821    0.000000000000
 H   -5.314480864016    2.156435262821    0.000000000000
 C   -4.767890864016   -1.218974737179    0.000000000000
 H   -5.304730864016   -2.171914737179    0.000000000000
 C   -3.367940864016    1.210735262821    0.000000000000
 H   -2.813690864016    2.154065262821    0.000000000000
 C   -3.362480864016   -1.217394737179    0.000000000000
 H   -2.803940864016   -2.158204737179    0.000000000000
 C   -2.637000864016   -0.001684737179    0.000000000000
 O   -1.288420864016    0.001325262821    0.000000000000
LI    0.076829135984   -0.000084737179    1.169840000000
LI    0.076829135984   -0.000084737179   -1.169840000000
 O    1.276828496006   -0.001324069973    0.000000000000
 C    2.625405116187    0.001695185279    0.000000000000
 C    3.350887521414    1.217411728148    0.000000000000
 H    2.792343104141    2.158223456568    0.000000000000
 C    4.756296629887    1.218994738498    0.000000000000
 H    5.293135191793    2.171934096984    0.000000000000
 C    5.471875310172    0.008143272620    0.000000000000
 H    6.564312532880    0.010606612614    0.000000000000
 C    4.761760134407   -1.205920381909    0.000000000000
 H    5.302906215130   -2.156420240835    0.000000000000
 C    3.356368347977   -1.210725237378    0.000000000000
 H    2.802118035315   -2.154061488676    0.000000000000
