26

 C   -5.622942048390   -0.007980684097    0.000000000000
 H   -6.715382048390   -0.010440684097    0.000000000000
 C   -4.912822048390    1.206079315903    0.000000000000
 H   -5.453962048390    2.156579315903    0.000000000000
 C   -4.907372048390   -1.218830684097    0.000000000000
 H   -5.444212048390   -2.171770684097    0.000000000000
 C   -3.507422048390    1.210879315903    0.000000000000
 H   -2.953172048390    2.154209315903    0.000000000000
 C   -3.501962048390   -1.217250684097    0.000000000000
 H   -2.943422048390   -2.158060684097    0.000000000000
 C   -2.776482048390   -0.001540684097    0.000000000000
 O   -1.427902048390    0.001469315903    0.000000000000
LI   -0.062652048390    0.000059315903    1.169840000000
LI   -0.062652048390    0.000059315903   -1.169840000000
 O    1.437347151638   -0.001489850090    0.000000000000
 C    2.785923771818    0.001529405162    0.000000000000
 C    3.511406177046    1.217245948031    0.000000000000
 H    2.952861759772    2.158057676451    0.000000000000
 C    4.916815285518    1.218828958382    0.000000000000
 H    5.453653847424    2.171768316867    0.000000000000
 C    5.632393965804    0.007977492503    0.000000000000
 H    6.724831188511    0.010440832497    0.000000000000
 C    4.922278790038   -1.206086162026    0.000000000000
 H    5.463424870761   -2.156586020952    0.000000000000
 C    3.516887003609   -1.210891017495    0.000000000000
 H    2.962636690947   -2.154227268793    0.000000000000
