26

 C   -5.669435776515   -0.007932666403    0.000000000000
 H   -6.761875776515   -0.010392666403    0.000000000000
 C   -4.959315776515    1.206127333597    0.000000000000
 H   -5.500455776515    2.156627333597    0.000000000000
 C   -4.953865776515   -1.218782666403    0.000000000000
 H   -5.490705776515   -2.171722666403    0.000000000000
 C   -3.553915776515    1.210927333597    0.000000000000
 H   -2.999665776515    2.154257333597    0.000000000000
 C   -3.548455776515   -1.217202666403    0.000000000000
 H   -2.989915776515   -2.158012666403    0.000000000000
 C   -2.822975776515   -0.001492666403    0.000000000000
 O   -1.474395776515    0.001517333597    0.000000000000
LI   -0.109145776515    0.000107333597    1.169840000000
LI   -0.109145776515    0.000107333597   -1.169840000000
 O    1.490853370181   -0.001545110129    0.000000000000
 C    2.839429990362    0.001474145123    0.000000000000
 C    3.564912395589    1.217190687992    0.000000000000
 H    3.006367978316    2.158002416412    0.000000000000
 C    4.970321504062    1.218773698343    0.000000000000
 H    5.507160065968    2.171713056828    0.000000000000
 C    5.685900184348    0.007922232464    0.000000000000
 H    6.778337407055    0.010385572458    0.000000000000
 C    4.975785008582   -1.206141422065    0.000000000000
 H    5.516931089305   -2.156641280991    0.000000000000
 C    3.570393222152   -1.210946277533    0.000000000000
 H    3.016142909491   -2.154282528832    0.000000000000
