26

 C   -5.715929504640   -0.007884648709    0.000000000000
 H   -6.808369504640   -0.010344648709    0.000000000000
 C   -5.005809504640    1.206175351291    0.000000000000
 H   -5.546949504640    2.156675351291    0.000000000000
 C   -5.000359504640   -1.218734648709    0.000000000000
 H   -5.537199504640   -2.171674648709    0.000000000000
 C   -3.600409504640    1.210975351291    0.000000000000
 H   -3.046159504640    2.154305351291    0.000000000000
 C   -3.594949504640   -1.217154648709    0.000000000000
 H   -3.036409504640   -2.157964648709    0.000000000000
 C   -2.869469504640   -0.001444648709    0.000000000000
 O   -1.520889504640    0.001565351291    0.000000000000
LI   -0.155639504640    0.000155351291    1.169840000000
LI   -0.155639504640    0.000155351291   -1.169840000000
 O    1.544359588725   -0.001600370168    0.000000000000
 C    2.892936208906    0.001418885084    0.000000000000
 C    3.618418614133    1.217135427953    0.000000000000
 H    3.059874196860    2.157947156373    0.000000000000
 C    5.023827722606    1.218718438304    0.000000000000
 H    5.560666284512    2.171657796789    0.000000000000
 C    5.739406402891    0.007866972425    0.000000000000
 H    6.831843625599    0.010330312419    0.000000000000
 C    5.029291227126   -1.206196682104    0.000000000000
 H    5.570437307849   -2.156696541030    0.000000000000
 C    3.623899440696   -1.211001537572    0.000000000000
 H    3.069649128034   -2.154337788871    0.000000000000
