26

 C   -5.808916960889   -0.007788613321    0.000000000000
 H   -6.901356960889   -0.010248613321    0.000000000000
 C   -5.098796960889    1.206271386679    0.000000000000
 H   -5.639936960889    2.156771386679    0.000000000000
 C   -5.093346960889   -1.218638613321    0.000000000000
 H   -5.630186960889   -2.171578613321    0.000000000000
 C   -3.693396960889    1.211071386679    0.000000000000
 H   -3.139146960889    2.154401386679    0.000000000000
 C   -3.687936960889   -1.217058613321    0.000000000000
 H   -3.129396960889   -2.157868613321    0.000000000000
 C   -2.962456960889   -0.001348613321    0.000000000000
 O   -1.613876960889    0.001661386679    0.000000000000
LI   -0.248626960889    0.000251386679    1.169840000000
LI   -0.248626960889    0.000251386679   -1.169840000000
 O    1.651372025813   -0.001710890246    0.000000000000
 C    2.999948645993    0.001308365006    0.000000000000
 C    3.725431051221    1.217024907875    0.000000000000
 H    3.166886633947    2.157836636295    0.000000000000
 C    5.130840159693    1.218607918226    0.000000000000
 H    5.667678721599    2.171547276711    0.000000000000
 C    5.846418839979    0.007756452347    0.000000000000
 H    6.938856062686    0.010219792341    0.000000000000
 C    5.136303664213   -1.206307202182    0.000000000000
 H    5.677449744937   -2.156807061107    0.000000000000
 C    3.730911877784   -1.211112057650    0.000000000000
 H    3.176661565122   -2.154448308949    0.000000000000
