26

 C   -9.574908938994   -0.003899180112    0.000000000000
 H  -10.667348938994   -0.006359180112    0.000000000000
 C   -8.864788938994    1.210160819888    0.000000000000
 H   -9.405928938994    2.160660819888    0.000000000000
 C   -8.859338938994   -1.214749180112    0.000000000000
 H   -9.396178938994   -2.167689180112    0.000000000000
 C   -7.459388938994    1.214960819888    0.000000000000
 H   -6.905138938994    2.158290819888    0.000000000000
 C   -7.453928938994   -1.213169180112    0.000000000000
 H   -6.895388938994   -2.153979180112    0.000000000000
 C   -6.728448938994    0.002540819888    0.000000000000
 O   -5.379868938994    0.005550819888    0.000000000000
LI   -4.014618938994    0.004140819888    1.169840000000
LI   -4.014618938994    0.004140819888   -1.169840000000
 O    5.985375727860   -0.006186953399    0.000000000000
 C    7.333952348040   -0.003167698147    0.000000000000
 C    8.059434753268    1.212548844722    0.000000000000
 H    7.500890335994    2.153360573142    0.000000000000
 C    9.464843861740    1.214131855073    0.000000000000
 H   10.001682423646    2.167071213558    0.000000000000
 C   10.180422542026    0.003280389194    0.000000000000
 H   11.272859764733    0.005743729188    0.000000000000
 C    9.470307366260   -1.210783265335    0.000000000000
 H   10.011453446983   -2.161283124261    0.000000000000
 C    8.064915579831   -1.215588120803    0.000000000000
 H    7.510665267169   -2.158924372102    0.000000000000
