26

 C   -5.855410689014   -0.007740595627    0.000000000000
 H   -6.947850689014   -0.010200595627    0.000000000000
 C   -5.145290689014    1.206319404373    0.000000000000
 H   -5.686430689014    2.156819404373    0.000000000000
 C   -5.139840689014   -1.218590595627    0.000000000000
 H   -5.676680689014   -2.171530595627    0.000000000000
 C   -3.739890689014    1.211119404373    0.000000000000
 H   -3.185640689014    2.154449404373    0.000000000000
 C   -3.734430689014   -1.217010595627    0.000000000000
 H   -3.175890689014   -2.157820595627    0.000000000000
 C   -3.008950689014   -0.001300595627    0.000000000000
 O   -1.660370689014    0.001709404373    0.000000000000
LI   -0.295120689014    0.000299404373    1.169840000000
LI   -0.295120689014    0.000299404373   -1.169840000000
 O    1.704878244357   -0.001766150285    0.000000000000
 C    3.053454864537    0.001253104967    0.000000000000
 C    3.778937269764    1.216969647836    0.000000000000
 H    3.220392852491    2.157781376256    0.000000000000
 C    5.184346378237    1.218552658187    0.000000000000
 H    5.721184940143    2.171492016672    0.000000000000
 C    5.899925058523    0.007701192308    0.000000000000
 H    6.992362281230    0.010164532302    0.000000000000
 C    5.189809882757   -1.206362462221    0.000000000000
 H    5.730955963480   -2.156862321146    0.000000000000
 C    3.784418096328   -1.211167317689    0.000000000000
 H    3.230167783666   -2.154503568988    0.000000000000
