26

 C   -6.134373057763   -0.007452489464    0.000000000000
 H   -7.226813057763   -0.009912489464    0.000000000000
 C   -5.424253057763    1.206607510536    0.000000000000
 H   -5.965393057763    2.157107510536    0.000000000000
 C   -5.418803057763   -1.218302489464    0.000000000000
 H   -5.955643057763   -2.171242489464    0.000000000000
 C   -4.018853057763    1.211407510536    0.000000000000
 H   -3.464603057763    2.154737510536    0.000000000000
 C   -4.013393057763   -1.216722489464    0.000000000000
 H   -3.454853057763   -2.157532489464    0.000000000000
 C   -3.287913057763   -0.001012489464    0.000000000000
 O   -1.939333057763    0.001997510536    0.000000000000
LI   -0.574083057763    0.000587510536    1.169840000000
LI   -0.574083057763    0.000587510536   -1.169840000000
 O    2.025915555619   -0.002097710518    0.000000000000
 C    3.374492175800    0.000921544734    0.000000000000
 C    4.099974581027    1.216638087603    0.000000000000
 H    3.541430163754    2.157449816023    0.000000000000
 C    5.505383689500    1.218221097953    0.000000000000
 H    6.042222251406    2.171160456439    0.000000000000
 C    6.220962369786    0.007369632075    0.000000000000
 H    7.313399592493    0.009832972069    0.000000000000
 C    5.510847194020   -1.206694022454    0.000000000000
 H    6.051993274743   -2.157193881380    0.000000000000
 C    4.105455407590   -1.211498877923    0.000000000000
 H    3.551205094928   -2.154835129221    0.000000000000
