26

 C   -6.180866785887   -0.007404471770    0.000000000000
 H   -7.273306785887   -0.009864471770    0.000000000000
 C   -5.470746785887    1.206655528230    0.000000000000
 H   -6.011886785887    2.157155528230    0.000000000000
 C   -5.465296785887   -1.218254471770    0.000000000000
 H   -6.002136785887   -2.171194471770    0.000000000000
 C   -4.065346785887    1.211455528230    0.000000000000
 H   -3.511096785887    2.154785528230    0.000000000000
 C   -4.059886785887   -1.216674471770    0.000000000000
 H   -3.501346785887   -2.157484471770    0.000000000000
 C   -3.334406785887   -0.000964471770    0.000000000000
 O   -1.985826785887    0.002045528230    0.000000000000
LI   -0.620576785887    0.000635528230    1.169840000000
LI   -0.620576785887    0.000635528230   -1.169840000000
 O    2.079421774163   -0.002152970557    0.000000000000
 C    3.427998394344    0.000866284695    0.000000000000
 C    4.153480799571    1.216582827564    0.000000000000
 H    3.594936382298    2.157394555984    0.000000000000
 C    5.558889908044    1.218165837914    0.000000000000
 H    6.095728469950    2.171105196400    0.000000000000
 C    6.274468588329    0.007314372036    0.000000000000
 H    7.366905811036    0.009777712030    0.000000000000
 C    5.564353412564   -1.206749282493    0.000000000000
 H    6.105499493287   -2.157249141419    0.000000000000
 C    4.158961626134   -1.211554137962    0.000000000000
 H    3.604711313472   -2.154890389260    0.000000000000
