26

 C   -6.273854242137   -0.007308436382    0.000000000000
 H   -7.366294242137   -0.009768436382    0.000000000000
 C   -5.563734242137    1.206751563618    0.000000000000
 H   -6.104874242137    2.157251563618    0.000000000000
 C   -5.558284242137   -1.218158436382    0.000000000000
 H   -6.095124242137   -2.171098436382    0.000000000000
 C   -4.158334242137    1.211551563618    0.000000000000
 H   -3.604084242137    2.154881563618    0.000000000000
 C   -4.152874242137   -1.216578436382    0.000000000000
 H   -3.594334242137   -2.157388436382    0.000000000000
 C   -3.427394242137   -0.000868436382    0.000000000000
 O   -2.078814242137    0.002141563618    0.000000000000
LI   -0.713564242137    0.000731563618    1.169840000000
LI   -0.713564242137    0.000731563618   -1.169840000000
 O    2.186434211251   -0.002263490635    0.000000000000
 C    3.535010831431    0.000755764617    0.000000000000
 C    4.260493236659    1.216472307486    0.000000000000
 H    3.701948819385    2.157284035906    0.000000000000
 C    5.665902345131    1.218055317837    0.000000000000
 H    6.202740907037    2.170994676322    0.000000000000
 C    6.381481025417    0.007203851958    0.000000000000
 H    7.473918248124    0.009667191952    0.000000000000
 C    5.671365849651   -1.206859802571    0.000000000000
 H    6.212511930374   -2.157359661497    0.000000000000
 C    4.265974063222   -1.211664658040    0.000000000000
 H    3.711723750560   -2.155000909338    0.000000000000
