26

 C   -6.366841698386   -0.007212400994    0.000000000000
 H   -7.459281698386   -0.009672400994    0.000000000000
 C   -5.656721698386    1.206847599006    0.000000000000
 H   -6.197861698386    2.157347599006    0.000000000000
 C   -5.651271698386   -1.218062400994    0.000000000000
 H   -6.188111698386   -2.171002400994    0.000000000000
 C   -4.251321698386    1.211647599006    0.000000000000
 H   -3.697071698386    2.154977599006    0.000000000000
 C   -4.245861698386   -1.216482400994    0.000000000000
 H   -3.687321698386   -2.157292400994    0.000000000000
 C   -3.520381698386   -0.000772400994    0.000000000000
 O   -2.171801698386    0.002237599006    0.000000000000
LI   -0.806551698386    0.000827599006    1.169840000000
LI   -0.806551698386    0.000827599006   -1.169840000000
 O    2.293446648338   -0.002374010713    0.000000000000
 C    3.642023268519    0.000645244539    0.000000000000
 C    4.367505673746    1.216361787408    0.000000000000
 H    3.808961256473    2.157173515828    0.000000000000
 C    5.772914782219    1.217944797759    0.000000000000
 H    6.309753344125    2.170884156244    0.000000000000
 C    6.488493462504    0.007093331880    0.000000000000
 H    7.580930685212    0.009556671874    0.000000000000
 C    5.778378286739   -1.206970322649    0.000000000000
 H    6.319524367462   -2.157470181575    0.000000000000
 C    4.372986500309   -1.211775178117    0.000000000000
 H    3.818736187647   -2.155111429416    0.000000000000
