26

 C   -6.459829154636   -0.007116365606    0.000000000000
 H   -7.552269154636   -0.009576365606    0.000000000000
 C   -5.749709154636    1.206943634394    0.000000000000
 H   -6.290849154636    2.157443634394    0.000000000000
 C   -5.744259154636   -1.217966365606    0.000000000000
 H   -6.281099154636   -2.170906365606    0.000000000000
 C   -4.344309154636    1.211743634394    0.000000000000
 H   -3.790059154636    2.155073634394    0.000000000000
 C   -4.338849154636   -1.216386365606    0.000000000000
 H   -3.780309154636   -2.157196365606    0.000000000000
 C   -3.613369154636   -0.000676365606    0.000000000000
 O   -2.264789154636    0.002333634394    0.000000000000
LI   -0.899539154636    0.000923634394    1.169840000000
LI   -0.899539154636    0.000923634394   -1.169840000000
 O    2.400459085426   -0.002484530791    0.000000000000
 C    3.749035705606    0.000534724461    0.000000000000
 C    4.474518110834    1.216251267330    0.000000000000
 H    3.915973693560    2.157062995750    0.000000000000
 C    5.879927219306    1.217834277681    0.000000000000
 H    6.416765781212    2.170773636166    0.000000000000
 C    6.595505899592    0.006982811802    0.000000000000
 H    7.687943122299    0.009446151796    0.000000000000
 C    5.885390723827   -1.207080842727    0.000000000000
 H    6.426536804550   -2.157580701652    0.000000000000
 C    4.479998937397   -1.211885698195    0.000000000000
 H    3.925748624735   -2.155221949494    0.000000000000
