26

 C   -6.506322882761   -0.007068347912    0.000000000000
 H   -7.598762882761   -0.009528347912    0.000000000000
 C   -5.796202882761    1.206991652088    0.000000000000
 H   -6.337342882761    2.157491652088    0.000000000000
 C   -5.790752882761   -1.217918347912    0.000000000000
 H   -6.327592882761   -2.170858347912    0.000000000000
 C   -4.390802882761    1.211791652088    0.000000000000
 H   -3.836552882761    2.155121652088    0.000000000000
 C   -4.385342882761   -1.216338347912    0.000000000000
 H   -3.826802882761   -2.157148347912    0.000000000000
 C   -3.659862882761   -0.000628347912    0.000000000000
 O   -2.311282882761    0.002381652088    0.000000000000
LI   -0.946032882761    0.000971652088    1.169840000000
LI   -0.946032882761    0.000971652088   -1.169840000000
 O    2.453965303970   -0.002539790830    0.000000000000
 C    3.802541924150    0.000479464422    0.000000000000
 C    4.528024329377    1.216196007291    0.000000000000
 H    3.969479912104    2.157007735711    0.000000000000
 C    5.933433437850    1.217779017642    0.000000000000
 H    6.470271999756    2.170718376127    0.000000000000
 C    6.649012118136    0.006927551763    0.000000000000
 H    7.741449340843    0.009390891757    0.000000000000
 C    5.938896942370   -1.207136102766    0.000000000000
 H    6.480043023093   -2.157635961691    0.000000000000
 C    4.533505155941   -1.211940958234    0.000000000000
 H    3.979254843279   -2.155277209533    0.000000000000
