26

 C   -6.692297795260   -0.006876277137    0.000000000000
 H   -7.784737795260   -0.009336277137    0.000000000000
 C   -5.982177795260    1.207183722863    0.000000000000
 H   -6.523317795260    2.157683722863    0.000000000000
 C   -5.976727795260   -1.217726277137    0.000000000000
 H   -6.513567795260   -2.170666277137    0.000000000000
 C   -4.576777795260    1.211983722863    0.000000000000
 H   -4.022527795260    2.155313722863    0.000000000000
 C   -4.571317795260   -1.216146277137    0.000000000000
 H   -4.012777795260   -2.156956277137    0.000000000000
 C   -3.845837795260   -0.000436277137    0.000000000000
 O   -2.497257795260    0.002573722863    0.000000000000
LI   -1.132007795260    0.001163722863    1.169840000000
LI   -1.132007795260    0.001163722863   -1.169840000000
 O    2.667990178145   -0.002760830986    0.000000000000
 C    4.016566798325    0.000258424266    0.000000000000
 C    4.742049203553    1.215974967136    0.000000000000
 H    4.183504786279    2.156786695556    0.000000000000
 C    6.147458312025    1.217557977486    0.000000000000
 H    6.684296873931    2.170497335972    0.000000000000
 C    6.863036992311    0.006706511607    0.000000000000
 H    7.955474215018    0.009169851602    0.000000000000
 C    6.152921816545   -1.207357142921    0.000000000000
 H    6.694067897268   -2.157857001847    0.000000000000
 C    4.747530030116   -1.212161998390    0.000000000000
 H    4.193279717454   -2.155498249689    0.000000000000
