26

 C   -6.738791523384   -0.006828259443    0.000000000000
 H   -7.831231523384   -0.009288259443    0.000000000000
 C   -6.028671523384    1.207231740557    0.000000000000
 H   -6.569811523384    2.157731740557    0.000000000000
 C   -6.023221523384   -1.217678259443    0.000000000000
 H   -6.560061523384   -2.170618259443    0.000000000000
 C   -4.623271523384    1.212031740557    0.000000000000
 H   -4.069021523384    2.155361740557    0.000000000000
 C   -4.617811523384   -1.216098259443    0.000000000000
 H   -4.059271523384   -2.156908259443    0.000000000000
 C   -3.892331523384   -0.000388259443    0.000000000000
 O   -2.543751523384    0.002621740557    0.000000000000
LI   -1.178501523384    0.001211740557    1.169840000000
LI   -1.178501523384    0.001211740557   -1.169840000000
 O    2.721496396689   -0.002816091025    0.000000000000
 C    4.070073016869    0.000203164228    0.000000000000
 C    4.795555422096    1.215919707097    0.000000000000
 H    4.237011004823    2.156731435517    0.000000000000
 C    6.200964530569    1.217502717447    0.000000000000
 H    6.737803092475    2.170442075933    0.000000000000
 C    6.916543210855    0.006651251569    0.000000000000
 H    8.008980433562    0.009114591563    0.000000000000
 C    6.206428035089   -1.207412402960    0.000000000000
 H    6.747574115812   -2.157912261886    0.000000000000
 C    4.801036248660   -1.212217258429    0.000000000000
 H    4.246785935998   -2.155553509727    0.000000000000
