26

 C   -6.831778979634   -0.006732224055    0.000000000000
 H   -7.924218979634   -0.009192224055    0.000000000000
 C   -6.121658979634    1.207327775945    0.000000000000
 H   -6.662798979634    2.157827775945    0.000000000000
 C   -6.116208979634   -1.217582224055    0.000000000000
 H   -6.653048979634   -2.170522224055    0.000000000000
 C   -4.716258979634    1.212127775945    0.000000000000
 H   -4.162008979634    2.155457775945    0.000000000000
 C   -4.710798979634   -1.216002224055    0.000000000000
 H   -4.152258979634   -2.156812224055    0.000000000000
 C   -3.985318979634   -0.000292224055    0.000000000000
 O   -2.636738979634    0.002717775945    0.000000000000
LI   -1.271488979634    0.001307775945    1.169840000000
LI   -1.271488979634    0.001307775945   -1.169840000000
 O    2.828508833776   -0.002926611102    0.000000000000
 C    4.177085453957    0.000092644150    0.000000000000
 C    4.902567859184    1.215809187019    0.000000000000
 H    4.344023441911    2.156620915439    0.000000000000
 C    6.307976967657    1.217392197369    0.000000000000
 H    6.844815529563    2.170331555855    0.000000000000
 C    7.023555647942    0.006540731491    0.000000000000
 H    8.115992870649    0.009004071485    0.000000000000
 C    6.313440472177   -1.207522923038    0.000000000000
 H    6.854586552900   -2.158022781964    0.000000000000
 C    4.908048685747   -1.212327778507    0.000000000000
 H    4.353798373085   -2.155664029805    0.000000000000
