26

 C   -6.878272707759   -0.006684206361    0.000000000000
 H   -7.970712707759   -0.009144206361    0.000000000000
 C   -6.168152707759    1.207375793639    0.000000000000
 H   -6.709292707759    2.157875793639    0.000000000000
 C   -6.162702707759   -1.217534206361    0.000000000000
 H   -6.699542707759   -2.170474206361    0.000000000000
 C   -4.762752707759    1.212175793639    0.000000000000
 H   -4.208502707759    2.155505793639    0.000000000000
 C   -4.757292707759   -1.215954206361    0.000000000000
 H   -4.198752707759   -2.156764206361    0.000000000000
 C   -4.031812707759   -0.000244206361    0.000000000000
 O   -2.683232707759    0.002765793639    0.000000000000
LI   -1.317982707759    0.001355793639    1.169840000000
LI   -1.317982707759    0.001355793639   -1.169840000000
 O    2.882015052320   -0.002981871141    0.000000000000
 C    4.230591672501    0.000037384111    0.000000000000
 C    4.956074077728    1.215753926980    0.000000000000
 H    4.397529660455    2.156565655400    0.000000000000
 C    6.361483186201    1.217336937331    0.000000000000
 H    6.898321748106    2.170276295816    0.000000000000
 C    7.077061866486    0.006485471452    0.000000000000
 H    8.169499089193    0.008948811446    0.000000000000
 C    6.366946690721   -1.207578183077    0.000000000000
 H    6.908092771444   -2.158078042003    0.000000000000
 C    4.961554904291   -1.212383038546    0.000000000000
 H    4.407304591629   -2.155719289844    0.000000000000
