26

 C   -6.971260164008   -0.006588170973    0.000000000000
 H   -8.063700164008   -0.009048170973    0.000000000000
 C   -6.261140164008    1.207471829027    0.000000000000
 H   -6.802280164008    2.157971829027    0.000000000000
 C   -6.255690164008   -1.217438170973    0.000000000000
 H   -6.792530164008   -2.170378170973    0.000000000000
 C   -4.855740164008    1.212271829027    0.000000000000
 H   -4.301490164008    2.155601829027    0.000000000000
 C   -4.850280164008   -1.215858170973    0.000000000000
 H   -4.291740164008   -2.156668170973    0.000000000000
 C   -4.124800164008   -0.000148170973    0.000000000000
 O   -2.776220164008    0.002861829027    0.000000000000
LI   -1.410970164008    0.001451829027    1.169840000000
LI   -1.410970164008    0.001451829027   -1.169840000000
 O    2.989027489407   -0.003092391219    0.000000000000
 C    4.337604109588   -0.000073135967    0.000000000000
 C    5.063086514815    1.215643406902    0.000000000000
 H    4.504542097542    2.156455135322    0.000000000000
 C    6.468495623288    1.217226417253    0.000000000000
 H    7.005334185194    2.170165775738    0.000000000000
 C    7.184074303574    0.006374951374    0.000000000000
 H    8.276511526281    0.008838291368    0.000000000000
 C    6.473959127808   -1.207688703155    0.000000000000
 H    7.015105208531   -2.158188562081    0.000000000000
 C    5.068567341379   -1.212493558623    0.000000000000
 H    4.514317028717   -2.155829809922    0.000000000000
