26

 C   -7.017753892133   -0.006540153279    0.000000000000
 H   -8.110193892133   -0.009000153279    0.000000000000
 C   -6.307633892133    1.207519846721    0.000000000000
 H   -6.848773892133    2.158019846721    0.000000000000
 C   -6.302183892133   -1.217390153279    0.000000000000
 H   -6.839023892133   -2.170330153279    0.000000000000
 C   -4.902233892133    1.212319846721    0.000000000000
 H   -4.347983892133    2.155649846721    0.000000000000
 C   -4.896773892133   -1.215810153279    0.000000000000
 H   -4.338233892133   -2.156620153279    0.000000000000
 C   -4.171293892133   -0.000100153279    0.000000000000
 O   -2.822713892133    0.002909846721    0.000000000000
LI   -1.457463892133    0.001499846721    1.169840000000
LI   -1.457463892133    0.001499846721   -1.169840000000
 O    3.042533707951   -0.003147651258    0.000000000000
 C    4.391110328132   -0.000128396006    0.000000000000
 C    5.116592733359    1.215588146863    0.000000000000
 H    4.558048316086    2.156399875283    0.000000000000
 C    6.522001841832    1.217171157214    0.000000000000
 H    7.058840403738    2.170110515699    0.000000000000
 C    7.237580522117    0.006319691335    0.000000000000
 H    8.330017744825    0.008783031329    0.000000000000
 C    6.527465346352   -1.207743963194    0.000000000000
 H    7.068611427075   -2.158243822120    0.000000000000
 C    5.122073559922   -1.212548818662    0.000000000000
 H    4.567823247260   -2.155885069961    0.000000000000
