26

 C   -7.064247620258   -0.006492135585    0.000000000000
 H   -8.156687620258   -0.008952135585    0.000000000000
 C   -6.354127620258    1.207567864415    0.000000000000
 H   -6.895267620258    2.158067864415    0.000000000000
 C   -6.348677620258   -1.217342135585    0.000000000000
 H   -6.885517620258   -2.170282135585    0.000000000000
 C   -4.948727620258    1.212367864415    0.000000000000
 H   -4.394477620258    2.155697864415    0.000000000000
 C   -4.943267620258   -1.215762135585    0.000000000000
 H   -4.384727620258   -2.156572135585    0.000000000000
 C   -4.217787620258   -0.000052135585    0.000000000000
 O   -2.869207620258    0.002957864415    0.000000000000
LI   -1.503957620258    0.001547864415    1.169840000000
LI   -1.503957620258    0.001547864415   -1.169840000000
 O    3.096039926495   -0.003202911297    0.000000000000
 C    4.444616546676   -0.000183656045    0.000000000000
 C    5.170098951903    1.215532886824    0.000000000000
 H    4.611554534630    2.156344615244    0.000000000000
 C    6.575508060376    1.217115897175    0.000000000000
 H    7.112346622282    2.170055255660    0.000000000000
 C    7.291086740661    0.006264431296    0.000000000000
 H    8.383523963368    0.008727771290    0.000000000000
 C    6.580971564896   -1.207799223233    0.000000000000
 H    7.122117645619   -2.158299082159    0.000000000000
 C    5.175579778466   -1.212604078701    0.000000000000
 H    4.621329465804   -2.155940330000    0.000000000000
