26

 C   -7.157235076507   -0.006396100197    0.000000000000
 H   -8.249675076507   -0.008856100197    0.000000000000
 C   -6.447115076507    1.207663899803    0.000000000000
 H   -6.988255076507    2.158163899803    0.000000000000
 C   -6.441665076507   -1.217246100197    0.000000000000
 H   -6.978505076507   -2.170186100197    0.000000000000
 C   -5.041715076507    1.212463899803    0.000000000000
 H   -4.487465076507    2.155793899803    0.000000000000
 C   -5.036255076507   -1.215666100197    0.000000000000
 H   -4.477715076507   -2.156476100197    0.000000000000
 C   -4.310775076507    0.000043899803    0.000000000000
 O   -2.962195076507    0.003053899803    0.000000000000
LI   -1.596945076507    0.001643899803    1.169840000000
LI   -1.596945076507    0.001643899803   -1.169840000000
 O    3.203052363583   -0.003313431375    0.000000000000
 C    4.551628983763   -0.000294176123    0.000000000000
 C    5.277111388991    1.215422366746    0.000000000000
 H    4.718566971717    2.156234095166    0.000000000000
 C    6.682520497463    1.217005377097    0.000000000000
 H    7.219359059369    2.169944735582    0.000000000000
 C    7.398099177749    0.006153911218    0.000000000000
 H    8.490536400456    0.008617251212    0.000000000000
 C    6.687984001983   -1.207909743310    0.000000000000
 H    7.229130082706   -2.158409602236    0.000000000000
 C    5.282592215554   -1.212714598779    0.000000000000
 H    4.728341902892   -2.156050850078    0.000000000000
