26

 C   -7.203728804632   -0.006348082503    0.000000000000
 H   -8.296168804632   -0.008808082503    0.000000000000
 C   -6.493608804632    1.207711917497    0.000000000000
 H   -7.034748804632    2.158211917497    0.000000000000
 C   -6.488158804632   -1.217198082503    0.000000000000
 H   -7.024998804632   -2.170138082503    0.000000000000
 C   -5.088208804632    1.212511917497    0.000000000000
 H   -4.533958804632    2.155841917497    0.000000000000
 C   -5.082748804632   -1.215618082503    0.000000000000
 H   -4.524208804632   -2.156428082503    0.000000000000
 C   -4.357268804632    0.000091917497    0.000000000000
 O   -3.008688804632    0.003101917497    0.000000000000
LI   -1.643438804632    0.001691917497    1.169840000000
LI   -1.643438804632    0.001691917497   -1.169840000000
 O    3.256558582126   -0.003368691414    0.000000000000
 C    4.605135202307   -0.000349436162    0.000000000000
 C    5.330617607534    1.215367106707    0.000000000000
 H    4.772073190261    2.156178835128    0.000000000000
 C    6.736026716007    1.216950117058    0.000000000000
 H    7.272865277913    2.169889475544    0.000000000000
 C    7.451605396293    0.006098651179    0.000000000000
 H    8.544042619000    0.008561991173    0.000000000000
 C    6.741490220527   -1.207965003349    0.000000000000
 H    7.282636301250   -2.158464862275    0.000000000000
 C    5.336098434097   -1.212769858818    0.000000000000
 H    4.781848121436   -2.156106110117    0.000000000000
