26

 C   -7.296716260881   -0.006252047115    0.000000000000
 H   -8.389156260881   -0.008712047115    0.000000000000
 C   -6.586596260881    1.207807952885    0.000000000000
 H   -7.127736260881    2.158307952885    0.000000000000
 C   -6.581146260881   -1.217102047115    0.000000000000
 H   -7.117986260881   -2.170042047115    0.000000000000
 C   -5.181196260881    1.212607952885    0.000000000000
 H   -4.626946260881    2.155937952885    0.000000000000
 C   -5.175736260881   -1.215522047115    0.000000000000
 H   -4.617196260881   -2.156332047115    0.000000000000
 C   -4.450256260881    0.000187952885    0.000000000000
 O   -3.101676260881    0.003197952885    0.000000000000
LI   -1.736426260881    0.001787952885    1.169840000000
LI   -1.736426260881    0.001787952885   -1.169840000000
 O    3.363571019214   -0.003479211492    0.000000000000
 C    4.712147639395   -0.000459956240    0.000000000000
 C    5.437630044622    1.215256586629    0.000000000000
 H    4.879085627349    2.156068315050    0.000000000000
 C    6.843039153095    1.216839596980    0.000000000000
 H    7.379877715001    2.169778955466    0.000000000000
 C    7.558617833380    0.005988131101    0.000000000000
 H    8.651055056087    0.008451471096    0.000000000000
 C    6.848502657615   -1.208075523427    0.000000000000
 H    7.389648738338   -2.158575382353    0.000000000000
 C    5.443110871185   -1.212880378896    0.000000000000
 H    4.888860558523   -2.156216630195    0.000000000000
