26

 C   -7.482691173380   -0.006059976339    0.000000000000
 H   -8.575131173380   -0.008519976339    0.000000000000
 C   -6.772571173380    1.208000023661    0.000000000000
 H   -7.313711173380    2.158500023661    0.000000000000
 C   -6.767121173380   -1.216909976339    0.000000000000
 H   -7.303961173380   -2.169849976339    0.000000000000
 C   -5.367171173380    1.212800023661    0.000000000000
 H   -4.812921173380    2.156130023661    0.000000000000
 C   -5.361711173380   -1.215329976339    0.000000000000
 H   -4.803171173380   -2.156139976339    0.000000000000
 C   -4.636231173380    0.000380023661    0.000000000000
 O   -3.287651173380    0.003390023661    0.000000000000
LI   -1.922401173380    0.001980023661    1.169840000000
LI   -1.922401173380    0.001980023661   -1.169840000000
 O    3.577595893389   -0.003700251647    0.000000000000
 C    4.926172513570   -0.000680996395    0.000000000000
 C    5.651654918797    1.215035546474    0.000000000000
 H    5.093110501524    2.155847274894    0.000000000000
 C    7.057064027270    1.216618556824    0.000000000000
 H    7.593902589176    2.169557915310    0.000000000000
 C    7.772642707555    0.005767090946    0.000000000000
 H    8.865079930263    0.008230430940    0.000000000000
 C    7.062527531790   -1.208296563583    0.000000000000
 H    7.603673612513   -2.158796422509    0.000000000000
 C    5.657135745360   -1.213101419052    0.000000000000
 H    5.102885432698   -2.156437670350    0.000000000000
