26

 C   -7.529184901505   -0.006011958646    0.000000000000
 H   -8.621624901505   -0.008471958646    0.000000000000
 C   -6.819064901505    1.208048041354    0.000000000000
 H   -7.360204901505    2.158548041354    0.000000000000
 C   -6.813614901505   -1.216861958646    0.000000000000
 H   -7.350454901505   -2.169801958646    0.000000000000
 C   -5.413664901505    1.212848041354    0.000000000000
 H   -4.859414901505    2.156178041354    0.000000000000
 C   -5.408204901505   -1.215281958646    0.000000000000
 H   -4.849664901505   -2.156091958646    0.000000000000
 C   -4.682724901505    0.000428041354    0.000000000000
 O   -3.334144901505    0.003438041354    0.000000000000
LI   -1.968894901505    0.002028041354    1.169840000000
LI   -1.968894901505    0.002028041354   -1.169840000000
 O    3.631102111933   -0.003755511686    0.000000000000
 C    4.979678732114   -0.000736256434    0.000000000000
 C    5.705161137341    1.214980286435    0.000000000000
 H    5.146616720068    2.155792014855    0.000000000000
 C    7.110570245814    1.216563296786    0.000000000000
 H    7.647408807720    2.169502655271    0.000000000000
 C    7.826148926099    0.005711830907    0.000000000000
 H    8.918586148806    0.008175170901    0.000000000000
 C    7.116033750334   -1.208351823622    0.000000000000
 H    7.657179831057   -2.158851682548    0.000000000000
 C    5.710641963904   -1.213156679091    0.000000000000
 H    5.156391651242   -2.156492930389    0.000000000000
