26

 C   -7.575678629630   -0.005963940952    0.000000000000
 H   -8.668118629630   -0.008423940952    0.000000000000
 C   -6.865558629630    1.208096059048    0.000000000000
 H   -7.406698629630    2.158596059048    0.000000000000
 C   -6.860108629630   -1.216813940952    0.000000000000
 H   -7.396948629630   -2.169753940952    0.000000000000
 C   -5.460158629630    1.212896059048    0.000000000000
 H   -4.905908629630    2.156226059048    0.000000000000
 C   -5.454698629630   -1.215233940952    0.000000000000
 H   -4.896158629630   -2.156043940952    0.000000000000
 C   -4.729218629630    0.000476059048    0.000000000000
 O   -3.380638629630    0.003486059048    0.000000000000
LI   -2.015388629630    0.002076059048    1.169840000000
LI   -2.015388629630    0.002076059048   -1.169840000000
 O    3.684608330477   -0.003810771725    0.000000000000
 C    5.033184950657   -0.000791516473    0.000000000000
 C    5.758667355885    1.214925026396    0.000000000000
 H    5.200122938611    2.155736754816    0.000000000000
 C    7.164076464357    1.216508036747    0.000000000000
 H    7.700915026263    2.169447395232    0.000000000000
 C    7.879655144643    0.005656570868    0.000000000000
 H    8.972092367350    0.008119910862    0.000000000000
 C    7.169539968877   -1.208407083661    0.000000000000
 H    7.710686049600   -2.158906942587    0.000000000000
 C    5.764148182448   -1.213211939130    0.000000000000
 H    5.209897869786   -2.156548190428    0.000000000000
