26

 C   -7.668666085879   -0.005867905564    0.000000000000
 H   -8.761106085879   -0.008327905564    0.000000000000
 C   -6.958546085879    1.208192094436    0.000000000000
 H   -7.499686085879    2.158692094436    0.000000000000
 C   -6.953096085879   -1.216717905564    0.000000000000
 H   -7.489936085879   -2.169657905564    0.000000000000
 C   -5.553146085879    1.212992094436    0.000000000000
 H   -4.998896085879    2.156322094436    0.000000000000
 C   -5.547686085879   -1.215137905564    0.000000000000
 H   -4.989146085879   -2.155947905564    0.000000000000
 C   -4.822206085879    0.000572094436    0.000000000000
 O   -3.473626085879    0.003582094436    0.000000000000
LI   -2.108376085879    0.002172094436    1.169840000000
LI   -2.108376085879    0.002172094436   -1.169840000000
 O    3.791620767564   -0.003921291803    0.000000000000
 C    5.140197387745   -0.000902036551    0.000000000000
 C    5.865679792972    1.214814506318    0.000000000000
 H    5.307135375699    2.155626234738    0.000000000000
 C    7.271088901445    1.216397516669    0.000000000000
 H    7.807927463351    2.169336875154    0.000000000000
 C    7.986667581731    0.005546050790    0.000000000000
 H    9.079104804438    0.008009390784    0.000000000000
 C    7.276552405965   -1.208517603739    0.000000000000
 H    7.817698486688   -2.159017462665    0.000000000000
 C    5.871160619535   -1.213322459207    0.000000000000
 H    5.316910306873   -2.156658710506    0.000000000000
