26

 C   -7.901134726503   -0.005627817094    0.000000000000
 H   -8.993574726503   -0.008087817094    0.000000000000
 C   -7.191014726503    1.208432182906    0.000000000000
 H   -7.732154726503    2.158932182906    0.000000000000
 C   -7.185564726503   -1.216477817094    0.000000000000
 H   -7.722404726503   -2.169417817094    0.000000000000
 C   -5.785614726503    1.213232182906    0.000000000000
 H   -5.231364726503    2.156562182906    0.000000000000
 C   -5.780154726503   -1.214897817094    0.000000000000
 H   -5.221614726503   -2.155707817094    0.000000000000
 C   -5.054674726503    0.000812182906    0.000000000000
 O   -3.706094726503    0.003822182906    0.000000000000
LI   -2.340844726503    0.002412182906    1.169840000000
LI   -2.340844726503    0.002412182906   -1.169840000000
 O    4.059151860283   -0.004197591998    0.000000000000
 C    5.407728480464   -0.001178336746    0.000000000000
 C    6.133210885691    1.214538206123    0.000000000000
 H    5.574666468418    2.155349934544    0.000000000000
 C    7.538619994164    1.216121216474    0.000000000000
 H    8.075458556070    2.169060574960    0.000000000000
 C    8.254198674449    0.005269750595    0.000000000000
 H    9.346635897157    0.007733090590    0.000000000000
 C    7.544083498684   -1.208793903933    0.000000000000
 H    8.085229579407   -2.159293762859    0.000000000000
 C    6.138691712254   -1.213598759402    0.000000000000
 H    5.584441399592   -2.156935010701    0.000000000000
