26

 C   -8.040615910877   -0.005483764012    0.000000000000
 H   -9.133055910877   -0.007943764012    0.000000000000
 C   -7.330495910877    1.208576235988    0.000000000000
 H   -7.871635910877    2.159076235988    0.000000000000
 C   -7.325045910877   -1.216333764012    0.000000000000
 H   -7.861885910877   -2.169273764012    0.000000000000
 C   -5.925095910877    1.213376235988    0.000000000000
 H   -5.370845910877    2.156706235988    0.000000000000
 C   -5.919635910877   -1.214753764012    0.000000000000
 H   -5.361095910877   -2.155563764012    0.000000000000
 C   -5.194155910877    0.000956235988    0.000000000000
 O   -3.845575910877    0.003966235988    0.000000000000
LI   -2.480325910877    0.002556235988    1.169840000000
LI   -2.480325910877    0.002556235988   -1.169840000000
 O    4.219670515915   -0.004363372115    0.000000000000
 C    5.568247136095   -0.001344116862    0.000000000000
 C    6.293729541323    1.214372426007    0.000000000000
 H    5.735185124049    2.155184154427    0.000000000000
 C    7.699138649795    1.215955436357    0.000000000000
 H    8.235977211701    2.168894794843    0.000000000000
 C    8.414717330081    0.005103970479    0.000000000000
 H    9.507154552788    0.007567310473    0.000000000000
 C    7.704602154315   -1.208959684050    0.000000000000
 H    8.245748235038   -2.159459542976    0.000000000000
 C    6.299210367886   -1.213764539519    0.000000000000
 H    5.744960055224   -2.157100790817    0.000000000000
