26

 C   -8.087109639002   -0.005435746318    0.000000000000
 H   -9.179549639002   -0.007895746318    0.000000000000
 C   -7.376989639002    1.208624253682    0.000000000000
 H   -7.918129639002    2.159124253682    0.000000000000
 C   -7.371539639002   -1.216285746318    0.000000000000
 H   -7.908379639002   -2.169225746318    0.000000000000
 C   -5.971589639002    1.213424253682    0.000000000000
 H   -5.417339639002    2.156754253682    0.000000000000
 C   -5.966129639002   -1.214705746318    0.000000000000
 H   -5.407589639002   -2.155515746318    0.000000000000
 C   -5.240649639002    0.001004253682    0.000000000000
 O   -3.892069639002    0.004014253682    0.000000000000
LI   -2.526819639002    0.002604253682    1.169840000000
LI   -2.526819639002    0.002604253682   -1.169840000000
 O    4.273176734458   -0.004418632153    0.000000000000
 C    5.621753354639   -0.001399376901    0.000000000000
 C    6.347235759866    1.214317165968    0.000000000000
 H    5.788691342593    2.155128894388    0.000000000000
 C    7.752644868339    1.215900176318    0.000000000000
 H    8.289483430245    2.168839534804    0.000000000000
 C    8.468223548625    0.005048710440    0.000000000000
 H    9.560660771332    0.007512050434    0.000000000000
 C    7.758108372859   -1.209014944089    0.000000000000
 H    8.299254453582   -2.159514803015    0.000000000000
 C    6.352716586429   -1.213819799558    0.000000000000
 H    5.798466273768   -2.157156050856    0.000000000000
