26

 C   -8.133603367127   -0.005387728624    0.000000000000
 H   -9.226043367127   -0.007847728624    0.000000000000
 C   -7.423483367127    1.208672271376    0.000000000000
 H   -7.964623367127    2.159172271376    0.000000000000
 C   -7.418033367127   -1.216237728624    0.000000000000
 H   -7.954873367127   -2.169177728624    0.000000000000
 C   -6.018083367127    1.213472271376    0.000000000000
 H   -5.463833367127    2.156802271376    0.000000000000
 C   -6.012623367127   -1.214657728624    0.000000000000
 H   -5.454083367127   -2.155467728624    0.000000000000
 C   -5.287143367127    0.001052271376    0.000000000000
 O   -3.938563367127    0.004062271376    0.000000000000
LI   -2.573313367127    0.002652271376    1.169840000000
LI   -2.573313367127    0.002652271376   -1.169840000000
 O    4.326682953002   -0.004473892192    0.000000000000
 C    5.675259573183   -0.001454636940    0.000000000000
 C    6.400741978410    1.214261905929    0.000000000000
 H    5.842197561137    2.155073634349    0.000000000000
 C    7.806151086883    1.215844916279    0.000000000000
 H    8.342989648789    2.168784274765    0.000000000000
 C    8.521729767168    0.004993450401    0.000000000000
 H    9.614166989876    0.007456790395    0.000000000000
 C    7.811614591403   -1.209070204128    0.000000000000
 H    8.352760672126   -2.159570063054    0.000000000000
 C    6.406222804973   -1.213875059597    0.000000000000
 H    5.851972492311   -2.157211310895    0.000000000000
