26

 C   -8.180097095251   -0.005339710930    0.000000000000
 H   -9.272537095251   -0.007799710930    0.000000000000
 C   -7.469977095251    1.208720289070    0.000000000000
 H   -8.011117095251    2.159220289070    0.000000000000
 C   -7.464527095251   -1.216189710930    0.000000000000
 H   -8.001367095251   -2.169129710930    0.000000000000
 C   -6.064577095251    1.213520289070    0.000000000000
 H   -5.510327095251    2.156850289070    0.000000000000
 C   -6.059117095251   -1.214609710930    0.000000000000
 H   -5.500577095251   -2.155419710930    0.000000000000
 C   -5.333637095251    0.001100289070    0.000000000000
 O   -3.985057095251    0.004110289070    0.000000000000
LI   -2.619807095251    0.002700289070    1.169840000000
LI   -2.619807095251    0.002700289070   -1.169840000000
 O    4.380189171546   -0.004529152231    0.000000000000
 C    5.728765791727   -0.001509896979    0.000000000000
 C    6.454248196954    1.214206645890    0.000000000000
 H    5.895703779681    2.155018374310    0.000000000000
 C    7.859657305427    1.215789656241    0.000000000000
 H    8.396495867333    2.168729014726    0.000000000000
 C    8.575235985712    0.004938190362    0.000000000000
 H    9.667673208419    0.007401530356    0.000000000000
 C    7.865120809947   -1.209125464167    0.000000000000
 H    8.406266890670   -2.159625323093    0.000000000000
 C    6.459729023517   -1.213930319636    0.000000000000
 H    5.905478710855   -2.157266570934    0.000000000000
