26

 C   -8.226590823376   -0.005291693236    0.000000000000
 H   -9.319030823376   -0.007751693236    0.000000000000
 C   -7.516470823376    1.208768306764    0.000000000000
 H   -8.057610823376    2.159268306764    0.000000000000
 C   -7.511020823376   -1.216141693236    0.000000000000
 H   -8.047860823376   -2.169081693236    0.000000000000
 C   -6.111070823376    1.213568306764    0.000000000000
 H   -5.556820823376    2.156898306764    0.000000000000
 C   -6.105610823376   -1.214561693236    0.000000000000
 H   -5.547070823376   -2.155371693236    0.000000000000
 C   -5.380130823376    0.001148306764    0.000000000000
 O   -4.031550823376    0.004158306764    0.000000000000
LI   -2.666300823376    0.002748306764    1.169840000000
LI   -2.666300823376    0.002748306764   -1.169840000000
 O    4.433695390090   -0.004584412270    0.000000000000
 C    5.782272010270   -0.001565157018    0.000000000000
 C    6.507754415498    1.214151385851    0.000000000000
 H    5.949209998224    2.154963114271    0.000000000000
 C    7.913163523970    1.215734396202    0.000000000000
 H    8.450002085876    2.168673754687    0.000000000000
 C    8.628742204256    0.004882930323    0.000000000000
 H    9.721179426963    0.007346270317    0.000000000000
 C    7.918627028490   -1.209180724206    0.000000000000
 H    8.459773109214   -2.159680583132    0.000000000000
 C    6.513235242061   -1.213985579675    0.000000000000
 H    5.958984929399   -2.157321830973    0.000000000000
