26

 C   -8.366072007750   -0.005147640155    0.000000000000
 H   -9.458512007750   -0.007607640155    0.000000000000
 C   -7.655952007750    1.208912359845    0.000000000000
 H   -8.197092007750    2.159412359845    0.000000000000
 C   -7.650502007750   -1.215997640155    0.000000000000
 H   -8.187342007750   -2.168937640155    0.000000000000
 C   -6.250552007750    1.213712359845    0.000000000000
 H   -5.696302007750    2.157042359845    0.000000000000
 C   -6.245092007750   -1.214417640155    0.000000000000
 H   -5.686552007750   -2.155227640155    0.000000000000
 C   -5.519612007750    0.001292359845    0.000000000000
 O   -4.171032007750    0.004302359845    0.000000000000
LI   -2.805782007750    0.002892359845    1.169840000000
LI   -2.805782007750    0.002892359845   -1.169840000000
 O    4.594214045721   -0.004750192387    0.000000000000
 C    5.942790665902   -0.001730937135    0.000000000000
 C    6.668273071129    1.213985605734    0.000000000000
 H    6.109728653856    2.154797334154    0.000000000000
 C    8.073682179602    1.215568616085    0.000000000000
 H    8.610520741508    2.168507974570    0.000000000000
 C    8.789260859887    0.004717150206    0.000000000000
 H    9.881698082595    0.007180490200    0.000000000000
 C    8.079145684122   -1.209346504323    0.000000000000
 H    8.620291764845   -2.159846363248    0.000000000000
 C    6.673753897692   -1.214151359791    0.000000000000
 H    6.119503585030   -2.157487611090    0.000000000000
