26

 C   -8.412565735875   -0.005099622461    0.000000000000
 H   -9.505005735875   -0.007559622461    0.000000000000
 C   -7.702445735875    1.208960377539    0.000000000000
 H   -8.243585735875    2.159460377539    0.000000000000
 C   -7.696995735875   -1.215949622461    0.000000000000
 H   -8.233835735875   -2.168889622461    0.000000000000
 C   -6.297045735875    1.213760377539    0.000000000000
 H   -5.742795735875    2.157090377539    0.000000000000
 C   -6.291585735875   -1.214369622461    0.000000000000
 H   -5.733045735875   -2.155179622461    0.000000000000
 C   -5.566105735875    0.001340377539    0.000000000000
 O   -4.217525735875    0.004350377539    0.000000000000
LI   -2.852275735875    0.002940377539    1.169840000000
LI   -2.852275735875    0.002940377539   -1.169840000000
 O    4.647720264265   -0.004805452426    0.000000000000
 C    5.996296884446   -0.001786197174    0.000000000000
 C    6.721779289673    1.213930345695    0.000000000000
 H    6.163234872400    2.154742074115    0.000000000000
 C    8.127188398146    1.215513356046    0.000000000000
 H    8.664026960052    2.168452714531    0.000000000000
 C    8.842767078431    0.004661890167    0.000000000000
 H    9.935204301138    0.007125230161    0.000000000000
 C    8.132651902666   -1.209401764362    0.000000000000
 H    8.673797983389   -2.159901623287    0.000000000000
 C    6.727260116236   -1.214206619830    0.000000000000
 H    6.173009803574   -2.157542871129    0.000000000000
