26

 C   -8.505553192125   -0.005003587073    0.000000000000
 H   -9.597993192125   -0.007463587073    0.000000000000
 C   -7.795433192125    1.209056412927    0.000000000000
 H   -8.336573192125    2.159556412927    0.000000000000
 C   -7.789983192125   -1.215853587073    0.000000000000
 H   -8.326823192125   -2.168793587073    0.000000000000
 C   -6.390033192125    1.213856412927    0.000000000000
 H   -5.835783192125    2.157186412927    0.000000000000
 C   -6.384573192125   -1.214273587073    0.000000000000
 H   -5.826033192125   -2.155083587073    0.000000000000
 C   -5.659093192125    0.001436412927    0.000000000000
 O   -4.310513192125    0.004446412927    0.000000000000
LI   -2.945263192125    0.003036412927    1.169840000000
LI   -2.945263192125    0.003036412927   -1.169840000000
 O    4.754732701353   -0.004915972504    0.000000000000
 C    6.103309321533   -0.001896717252    0.000000000000
 C    6.828791726760    1.213819825617    0.000000000000
 H    6.270247309487    2.154631554038    0.000000000000
 C    8.234200835233    1.215402835968    0.000000000000
 H    8.771039397139    2.168342194454    0.000000000000
 C    8.949779515519    0.004551370089    0.000000000000
 H   10.042216738226    0.007014710083    0.000000000000
 C    8.239664339753   -1.209512284439    0.000000000000
 H    8.780810420476   -2.160012143365    0.000000000000
 C    6.834272553324   -1.214317139908    0.000000000000
 H    6.280022240662   -2.157653391207    0.000000000000
