26

 C   -8.691528104624   -0.004811516297    0.000000000000
 H   -9.783968104624   -0.007271516297    0.000000000000
 C   -7.981408104624    1.209248483703    0.000000000000
 H   -8.522548104624    2.159748483703    0.000000000000
 C   -7.975958104624   -1.215661516297    0.000000000000
 H   -8.512798104624   -2.168601516297    0.000000000000
 C   -6.576008104624    1.214048483703    0.000000000000
 H   -6.021758104624    2.157378483703    0.000000000000
 C   -6.570548104624   -1.214081516297    0.000000000000
 H   -6.012008104624   -2.154891516297    0.000000000000
 C   -5.845068104624    0.001628483703    0.000000000000
 O   -4.496488104624    0.004638483703    0.000000000000
LI   -3.131238104624    0.003228483703    1.169840000000
LI   -3.131238104624    0.003228483703   -1.169840000000
 O    4.968757575528   -0.005137012660    0.000000000000
 C    6.317334195708   -0.002117757407    0.000000000000
 C    7.042816600936    1.213598785462    0.000000000000
 H    6.484272183662    2.154410513882    0.000000000000
 C    8.448225709408    1.215181795812    0.000000000000
 H    8.985064271314    2.168121154298    0.000000000000
 C    9.163804389694    0.004330329934    0.000000000000
 H   10.256241612401    0.006793669928    0.000000000000
 C    8.453689213928   -1.209733324595    0.000000000000
 H    8.994835294651   -2.160233183521    0.000000000000
 C    7.048297427499   -1.214538180064    0.000000000000
 H    6.494047114837   -2.157874431362    0.000000000000
