26

 C   -8.877503017123   -0.004619445521    0.000000000000
 H   -9.969943017123   -0.007079445521    0.000000000000
 C   -8.167383017123    1.209440554479    0.000000000000
 H   -8.708523017123    2.159940554479    0.000000000000
 C   -8.161933017123   -1.215469445521    0.000000000000
 H   -8.698773017123   -2.168409445521    0.000000000000
 C   -6.761983017123    1.214240554479    0.000000000000
 H   -6.207733017123    2.157570554479    0.000000000000
 C   -6.756523017123   -1.213889445521    0.000000000000
 H   -6.197983017123   -2.154699445521    0.000000000000
 C   -6.031043017123    0.001820554479    0.000000000000
 O   -4.682463017123    0.004830554479    0.000000000000
LI   -3.317213017123    0.003420554479    1.169840000000
LI   -3.317213017123    0.003420554479   -1.169840000000
 O    5.182782449703   -0.005358052815    0.000000000000
 C    6.531359069883   -0.002338797563    0.000000000000
 C    7.256841475111    1.213377745306    0.000000000000
 H    6.698297057838    2.154189473726    0.000000000000
 C    8.662250583584    1.214960755657    0.000000000000
 H    9.199089145489    2.167900114142    0.000000000000
 C    9.377829263869    0.004109289778    0.000000000000
 H   10.470266486576    0.006572629772    0.000000000000
 C    8.667714088104   -1.209954364751    0.000000000000
 H    9.208860168827   -2.160454223677    0.000000000000
 C    7.262322301674   -1.214759220220    0.000000000000
 H    6.708071989012   -2.158095471518    0.000000000000
