26

 C   -8.923996745247   -0.004571427827    0.000000000000
 H  -10.016436745247   -0.007031427827    0.000000000000
 C   -8.213876745247    1.209488572173    0.000000000000
 H   -8.755016745247    2.159988572173    0.000000000000
 C   -8.208426745247   -1.215421427827    0.000000000000
 H   -8.745266745247   -2.168361427827    0.000000000000
 C   -6.808476745247    1.214288572173    0.000000000000
 H   -6.254226745247    2.157618572173    0.000000000000
 C   -6.803016745247   -1.213841427827    0.000000000000
 H   -6.244476745247   -2.154651427827    0.000000000000
 C   -6.077536745247    0.001868572173    0.000000000000
 O   -4.728956745247    0.004878572173    0.000000000000
LI   -3.363706745247    0.003468572173    1.169840000000
LI   -3.363706745247    0.003468572173   -1.169840000000
 O    5.236288668247   -0.005413312854    0.000000000000
 C    6.584865288427   -0.002394057602    0.000000000000
 C    7.310347693655    1.213322485267    0.000000000000
 H    6.751803276381    2.154134213687    0.000000000000
 C    8.715756802127    1.214905495618    0.000000000000
 H    9.252595364033    2.167844854103    0.000000000000
 C    9.431335482413    0.004054029739    0.000000000000
 H   10.523772705120    0.006517369733    0.000000000000
 C    8.721220306647   -1.210009624790    0.000000000000
 H    9.262366387370   -2.160509483716    0.000000000000
 C    7.315828520218   -1.214814480258    0.000000000000
 H    6.761578207556   -2.158150731557    0.000000000000
