26

 C   -9.109971657746   -0.004379357051    0.000000000000
 H  -10.202411657746   -0.006839357051    0.000000000000
 C   -8.399851657746    1.209680642949    0.000000000000
 H   -8.940991657746    2.160180642949    0.000000000000
 C   -8.394401657746   -1.215229357051    0.000000000000
 H   -8.931241657746   -2.168169357051    0.000000000000
 C   -6.994451657746    1.214480642949    0.000000000000
 H   -6.440201657746    2.157810642949    0.000000000000
 C   -6.988991657746   -1.213649357051    0.000000000000
 H   -6.430451657746   -2.154459357051    0.000000000000
 C   -6.263511657746    0.002060642949    0.000000000000
 O   -4.914931657746    0.005070642949    0.000000000000
LI   -3.549681657746    0.003660642949    1.169840000000
LI   -3.549681657746    0.003660642949   -1.169840000000
 O    5.450313542422   -0.005634353010    0.000000000000
 C    6.798890162602   -0.002615097758    0.000000000000
 C    7.524372567830    1.213101445111    0.000000000000
 H    6.965828150556    2.153913173531    0.000000000000
 C    8.929781676302    1.214684455462    0.000000000000
 H    9.466620238208    2.167623813947    0.000000000000
 C    9.645360356588    0.003832989583    0.000000000000
 H   10.737797579295    0.006296329577    0.000000000000
 C    8.935245180822   -1.210230664945    0.000000000000
 H    9.476391261546   -2.160730523871    0.000000000000
 C    7.529853394393   -1.215035520414    0.000000000000
 H    6.975603081731   -2.158371771713    0.000000000000
