26

 C   -9.249452842121   -0.004235303970    0.000000000000
 H  -10.341892842121   -0.006695303970    0.000000000000
 C   -8.539332842121    1.209824696030    0.000000000000
 H   -9.080472842121    2.160324696030    0.000000000000
 C   -8.533882842121   -1.215085303970    0.000000000000
 H   -9.070722842121   -2.168025303970    0.000000000000
 C   -7.133932842121    1.214624696030    0.000000000000
 H   -6.579682842121    2.157954696030    0.000000000000
 C   -7.128472842121   -1.213505303970    0.000000000000
 H   -6.569932842121   -2.154315303970    0.000000000000
 C   -6.402992842121    0.002204696030    0.000000000000
 O   -5.054412842121    0.005214696030    0.000000000000
LI   -3.689162842121    0.003804696030    1.169840000000
LI   -3.689162842121    0.003804696030   -1.169840000000
 O    5.610832198053   -0.005800133127    0.000000000000
 C    6.959408818234   -0.002780877875    0.000000000000
 C    7.684891223461    1.212935664995    0.000000000000
 H    7.126346806188    2.153747393415    0.000000000000
 C    9.090300331934    1.214518675345    0.000000000000
 H    9.627138893840    2.167458033831    0.000000000000
 C    9.805879012219    0.003667209466    0.000000000000
 H   10.898316234927    0.006130549461    0.000000000000
 C    9.095763836454   -1.210396445062    0.000000000000
 H    9.636909917177   -2.160896303988    0.000000000000
 C    7.690372050024   -1.215201300531    0.000000000000
 H    7.136121737362   -2.158537551830    0.000000000000
