26

 C   -9.295946570245   -0.004187286276    0.000000000000
 H  -10.388386570245   -0.006647286276    0.000000000000
 C   -8.585826570245    1.209872713724    0.000000000000
 H   -9.126966570245    2.160372713724    0.000000000000
 C   -8.580376570245   -1.215037286276    0.000000000000
 H   -9.117216570245   -2.167977286276    0.000000000000
 C   -7.180426570245    1.214672713724    0.000000000000
 H   -6.626176570245    2.158002713724    0.000000000000
 C   -7.174966570245   -1.213457286276    0.000000000000
 H   -6.616426570245   -2.154267286276    0.000000000000
 C   -6.449486570245    0.002252713724    0.000000000000
 O   -5.100906570245    0.005262713724    0.000000000000
LI   -3.735656570245    0.003852713724    1.169840000000
LI   -3.735656570245    0.003852713724   -1.169840000000
 O    5.664338416597   -0.005855393166    0.000000000000
 C    7.012915036778   -0.002836137914    0.000000000000
 C    7.738397442005    1.212880404956    0.000000000000
 H    7.179853024732    2.153692133376    0.000000000000
 C    9.143806550478    1.214463415306    0.000000000000
 H    9.680645112384    2.167402773792    0.000000000000
 C    9.859385230763    0.003611949427    0.000000000000
 H   10.951822453470    0.006075289422    0.000000000000
 C    9.149270054998   -1.210451705101    0.000000000000
 H    9.690416135721   -2.160951564027    0.000000000000
 C    7.743878268568   -1.215256560570    0.000000000000
 H    7.189627955906   -2.158592811869    0.000000000000
