26

 C   -9.481921482744   -0.003995215500    0.000000000000
 H  -10.574361482744   -0.006455215500    0.000000000000
 C   -8.771801482744    1.210064784500    0.000000000000
 H   -9.312941482744    2.160564784500    0.000000000000
 C   -8.766351482744   -1.214845215500    0.000000000000
 H   -9.303191482744   -2.167785215500    0.000000000000
 C   -7.366401482744    1.214864784500    0.000000000000
 H   -6.812151482744    2.158194784500    0.000000000000
 C   -7.360941482744   -1.213265215500    0.000000000000
 H   -6.802401482744   -2.154075215500    0.000000000000
 C   -6.635461482744    0.002444784500    0.000000000000
 O   -5.286881482744    0.005454784500    0.000000000000
LI   -3.921631482744    0.004044784500    1.169840000000
LI   -3.921631482744    0.004044784500   -1.169840000000
 O    5.878363290772   -0.006076433321    0.000000000000
 C    7.226939910953   -0.003057178069    0.000000000000
 C    7.952422316180    1.212659364800    0.000000000000
 H    7.393877898907    2.153471093220    0.000000000000
 C    9.357831424653    1.214242375151    0.000000000000
 H    9.894669986559    2.167181733636    0.000000000000
 C   10.073410104938    0.003390909272    0.000000000000
 H   11.165847327645    0.005854249266    0.000000000000
 C    9.363294929173   -1.210672745257    0.000000000000
 H    9.904441009896   -2.161172604183    0.000000000000
 C    7.957903142743   -1.215477600726    0.000000000000
 H    7.403652830081   -2.158813852024    0.000000000000
