17

 C   -1.161513751497   -4.504870262455    0.000000000000
 H   -2.027103751497   -3.839660262455    0.000000000000
 H   -1.177023751497   -5.160030262455    0.882510000000
 H   -1.177023751497   -5.160030262455   -0.882510000000
 C    0.113226248503   -3.716350262455    0.000000000000
 O    0.212216248503   -2.483820262455    0.000000000000
 O    1.200326248503   -4.509930262455    0.000000000000
 H    1.985026248503   -3.934880262455    0.000000000000
RB   -0.042053751497    0.492209737545    0.000000000000
 O   -0.152721679716    1.787490637452    0.000000000000
 C   -0.053733675460    3.020022026510    0.000000000000
 O   -1.140833388005    3.813601700257    0.000000000000
 H   -1.925533465391    3.238551345028    0.000000000000
 C    1.221007581653    3.808543374043    0.000000000000
 H    2.086594699356    3.143334887500    0.000000000000
 H    1.236515184947    4.463705231504   -0.882512916431
 H    1.236515184947    4.463705231504    0.882512916431
