17

 C   -1.151541664003   -4.621585689142    0.000000000000
 H   -2.017131664003   -3.956375689142    0.000000000000
 H   -1.167051664003   -5.276745689142    0.882510000000
 H   -1.167051664003   -5.276745689142   -0.882510000000
 C    0.123198335997   -3.833065689142    0.000000000000
 O    0.222188335997   -2.600535689142    0.000000000000
 O    1.210298335997   -4.626645689142    0.000000000000
 H    1.994998335997   -4.051595689142    0.000000000000
RB   -0.032081664003    0.375494310858    0.000000000000
 O   -0.176801262444    2.069323179967    0.000000000000
 C   -0.077813258187    3.301854569026    0.000000000000
 O   -1.164912970733    4.095434242773    0.000000000000
 H   -1.949613048119    3.520383887543    0.000000000000
 C    1.196927998926    4.090375916558    0.000000000000
 H    2.062515116628    3.425167430016    0.000000000000
 H    1.212435602220    4.745537774019   -0.882512916431
 H    1.212435602220    4.745537774019    0.882512916431
