17

 C   -1.149048642130   -4.650764545813    0.000000000000
 H   -2.014638642130   -3.985554545813    0.000000000000
 H   -1.164558642130   -5.305924545813    0.882510000000
 H   -1.164558642130   -5.305924545813   -0.882510000000
 C    0.125691357870   -3.862244545813    0.000000000000
 O    0.224681357870   -2.629714545813    0.000000000000
 O    1.212791357870   -4.655824545813    0.000000000000
 H    1.997491357870   -4.080774545813    0.000000000000
RB   -0.029588642130    0.346315454187    0.000000000000
 O   -0.182821158126    2.139781315596    0.000000000000
 C   -0.083833153869    3.372312704654    0.000000000000
 O   -1.170932866414    4.165892378401    0.000000000000
 H   -1.955632943801    3.590842023172    0.000000000000
 C    1.190908103244    4.160834052186    0.000000000000
 H    2.056495220946    3.495625565644    0.000000000000
 H    1.206415706538    4.815995909648   -0.882512916431
 H    1.206415706538    4.815995909648    0.882512916431
