17

 C   -1.141569576510   -4.738301115828    0.000000000000
 H   -2.007159576510   -4.073091115828    0.000000000000
 H   -1.157079576510   -5.393461115828    0.882510000000
 H   -1.157079576510   -5.393461115828   -0.882510000000
 C    0.133170423490   -3.949781115828    0.000000000000
 O    0.232160423490   -2.717251115828    0.000000000000
 O    1.220270423490   -4.743361115828    0.000000000000
 H    2.004970423490   -4.168311115828    0.000000000000
RB   -0.022109576510    0.258778884172    0.000000000000
 O   -0.200880845172    2.351155722483    0.000000000000
 C   -0.101892840915    3.583687111541    0.000000000000
 O   -1.188992553460    4.377266785288    0.000000000000
 H   -1.973692630847    3.802216430058    0.000000000000
 C    1.172848416198    4.372208459073    0.000000000000
 H    2.038435533900    3.706999972531    0.000000000000
 H    1.188356019492    5.027370316534   -0.882512916431
 H    1.188356019492    5.027370316534    0.882512916431
