17

 C   -1.134090510889   -4.825837685844    0.000000000000
 H   -1.999680510889   -4.160627685844    0.000000000000
 H   -1.149600510889   -5.480997685844    0.882510000000
 H   -1.149600510889   -5.480997685844   -0.882510000000
 C    0.140649489111   -4.037317685844    0.000000000000
 O    0.239639489111   -2.804787685844    0.000000000000
 O    1.227749489111   -4.830897685844    0.000000000000
 H    2.012449489111   -4.255847685844    0.000000000000
RB   -0.014630510889    0.171242314156    0.000000000000
 O   -0.218940532218    2.562530129369    0.000000000000
 C   -0.119952527961    3.795061518427    0.000000000000
 O   -1.207052240506    4.588641192174    0.000000000000
 H   -1.991752317893    4.013590836945    0.000000000000
 C    1.154788729152    4.583582865959    0.000000000000
 H    2.020375846854    3.918374379417    0.000000000000
 H    1.170296332446    5.238744723420   -0.882512916431
 H    1.170296332446    5.238744723420    0.882512916431
