17

 C   -1.131597489016   -4.855016542515    0.000000000000
 H   -1.997187489016   -4.189806542515    0.000000000000
 H   -1.147107489016   -5.510176542515    0.882510000000
 H   -1.147107489016   -5.510176542515   -0.882510000000
 C    0.143142510984   -4.066496542515    0.000000000000
 O    0.242132510984   -2.833966542515    0.000000000000
 O    1.230242510984   -4.860076542515    0.000000000000
 H    2.014942510984   -4.285026542515    0.000000000000
RB   -0.012137489016    0.142063457485    0.000000000000
 O   -0.224960427900    2.632988264998    0.000000000000
 C   -0.125972423643    3.865519654056    0.000000000000
 O   -1.213072136188    4.659099327803    0.000000000000
 H   -1.997772213575    4.084048972573    0.000000000000
 C    1.148768833470    4.654041001588    0.000000000000
 H    2.014355951172    3.988832515046    0.000000000000
 H    1.164276436764    5.309202859049   -0.882512916431
 H    1.164276436764    5.309202859049    0.882512916431
