17

 C   -1.129104467143   -4.884195399187    0.000000000000
 H   -1.994694467143   -4.218985399187    0.000000000000
 H   -1.144614467143   -5.539355399187    0.882510000000
 H   -1.144614467143   -5.539355399187   -0.882510000000
 C    0.145635532857   -4.095675399187    0.000000000000
 O    0.244625532857   -2.863145399187    0.000000000000
 O    1.232735532857   -4.889255399187    0.000000000000
 H    2.017435532857   -4.314205399187    0.000000000000
RB   -0.009644467143    0.112884600813    0.000000000000
 O   -0.230980323582    2.703446400627    0.000000000000
 C   -0.131992319325    3.935977789685    0.000000000000
 O   -1.219092031870    4.729557463432    0.000000000000
 H   -2.003792109257    4.154507108202    0.000000000000
 C    1.142748937788    4.724499137217    0.000000000000
 H    2.008336055490    4.059290650675    0.000000000000
 H    1.158256541082    5.379660994678   -0.882512916431
 H    1.158256541082    5.379660994678    0.882512916431
