17

 C   -1.124118423396   -4.942553112531    0.000000000000
 H   -1.989708423396   -4.277343112531    0.000000000000
 H   -1.139628423396   -5.597713112531    0.882510000000
 H   -1.139628423396   -5.597713112531   -0.882510000000
 C    0.150621576604   -4.154033112531    0.000000000000
 O    0.249611576604   -2.921503112531    0.000000000000
 O    1.237721576604   -4.947613112531    0.000000000000
 H    2.022421576604   -4.372563112531    0.000000000000
RB   -0.004658423396    0.054526887469    0.000000000000
 O   -0.243020114946    2.844362671884    0.000000000000
 C   -0.144032110689    4.076894060942    0.000000000000
 O   -1.231131823234    4.870473734689    0.000000000000
 H   -2.015831900620    4.295423379460    0.000000000000
 C    1.130709146424    4.865415408474    0.000000000000
 H    1.996296264127    4.200206921932    0.000000000000
 H    1.146216749718    5.520577265936   -0.882512916431
 H    1.146216749718    5.520577265936    0.882512916431
