17

 C   -1.119132379649   -5.000910825874    0.000000000000
 H   -1.984722379649   -4.335700825874    0.000000000000
 H   -1.134642379649   -5.656070825874    0.882510000000
 H   -1.134642379649   -5.656070825874   -0.882510000000
 C    0.155607620351   -4.212390825874    0.000000000000
 O    0.254597620351   -2.979860825874    0.000000000000
 O    1.242707620351   -5.005970825874    0.000000000000
 H    2.027407620351   -4.430920825874    0.000000000000
RB    0.000327620351   -0.003830825874    0.000000000000
 O   -0.255059906309    2.985278943142    0.000000000000
 C   -0.156071902053    4.217810332200    0.000000000000
 O   -1.243171614598    5.011390005947    0.000000000000
 H   -2.027871691984    4.436339650717    0.000000000000
 C    1.118669355060    5.006331679732    0.000000000000
 H    1.984256472763    4.341123193190    0.000000000000
 H    1.134176958354    5.661493537193   -0.882512916431
 H    1.134176958354    5.661493537193    0.882512916431
