17

 C   -1.116639357775   -5.030089682546    0.000000000000
 H   -1.982229357775   -4.364879682546    0.000000000000
 H   -1.132149357775   -5.685249682546    0.882510000000
 H   -1.132149357775   -5.685249682546   -0.882510000000
 C    0.158100642225   -4.241569682546    0.000000000000
 O    0.257090642225   -3.009039682546    0.000000000000
 O    1.245200642225   -5.035149682546    0.000000000000
 H    2.029900642225   -4.460099682546    0.000000000000
RB    0.002820642225   -0.033009682546    0.000000000000
 O   -0.261079801991    3.055737078771    0.000000000000
 C   -0.162091797735    4.288268467829    0.000000000000
 O   -1.249191510280    5.081848141576    0.000000000000
 H   -2.033891587666    4.506797786346    0.000000000000
 C    1.112649459378    5.076789815361    0.000000000000
 H    1.978236577081    4.411581328819    0.000000000000
 H    1.128157062672    5.731951672822   -0.882512916431
 H    1.128157062672    5.731951672822    0.882512916431
