17

 C   -1.111653314029   -5.088447395889    0.000000000000
 H   -1.977243314029   -4.423237395889    0.000000000000
 H   -1.127163314029   -5.743607395889    0.882510000000
 H   -1.127163314029   -5.743607395889   -0.882510000000
 C    0.163086685971   -4.299927395889    0.000000000000
 O    0.262076685971   -3.067397395889    0.000000000000
 O    1.250186685971   -5.093507395889    0.000000000000
 H    2.034886685971   -4.518457395889    0.000000000000
RB    0.007806685971   -0.091367395889    0.000000000000
 O   -0.273119593355    3.196653350028    0.000000000000
 C   -0.174131589099    4.429184739086    0.000000000000
 O   -1.261231301644    5.222764412833    0.000000000000
 H   -2.045931379030    4.647714057604    0.000000000000
 C    1.100609668014    5.217706086618    0.000000000000
 H    1.966196785717    4.552497600076    0.000000000000
 H    1.116117271309    5.872867944080   -0.882512916431
 H    1.116117271309    5.872867944080    0.882512916431
