17

 C   -1.099188204662   -5.234341679248    0.000000000000
 H   -1.964778204662   -4.569131679248    0.000000000000
 H   -1.114698204662   -5.889501679248    0.882510000000
 H   -1.114698204662   -5.889501679248   -0.882510000000
 C    0.175551795338   -4.445821679248    0.000000000000
 O    0.274541795338   -3.213291679248    0.000000000000
 O    1.262651795338   -5.239401679248    0.000000000000
 H    2.047351795338   -4.664351679248    0.000000000000
RB    0.020271795338   -0.237261679248    0.000000000000
 O   -0.303219071765    3.548944028172    0.000000000000
 C   -0.204231067508    4.781475417230    0.000000000000
 O   -1.291330780053    5.575055090977    0.000000000000
 H   -2.076030857440    5.000004735748    0.000000000000
 C    1.070510189605    5.569996764762    0.000000000000
 H    1.936097307307    4.904788278220    0.000000000000
 H    1.086017792899    6.225158622224   -0.882512916431
 H    1.086017792899    6.225158622224    0.882512916431
