17

 C   -1.094202160915   -5.292699392591    0.000000000000
 H   -1.959792160915   -4.627489392591    0.000000000000
 H   -1.109712160915   -5.947859392591    0.882510000000
 H   -1.109712160915   -5.947859392591   -0.882510000000
 C    0.180537839085   -4.504179392591    0.000000000000
 O    0.279527839085   -3.271649392591    0.000000000000
 O    1.267637839085   -5.297759392591    0.000000000000
 H    2.052337839085   -4.722709392591    0.000000000000
RB    0.025257839085   -0.295619392591    0.000000000000
 O   -0.315258863129    3.689860299430    0.000000000000
 C   -0.216270858872    4.922391688488    0.000000000000
 O   -1.303370571417    5.715971362235    0.000000000000
 H   -2.088070648804    5.140921007005    0.000000000000
 C    1.058470398241    5.710913036020    0.000000000000
 H    1.924057515943    5.045704549478    0.000000000000
 H    1.073978001535    6.366074893481   -0.882512916431
 H    1.073978001535    6.366074893481    0.882512916431
