17

 C   -1.091709139041   -5.321878249263    0.000000000000
 H   -1.957299139041   -4.656668249263    0.000000000000
 H   -1.107219139041   -5.977038249263    0.882510000000
 H   -1.107219139041   -5.977038249263   -0.882510000000
 C    0.183030860959   -4.533358249263    0.000000000000
 O    0.282020860959   -3.300828249263    0.000000000000
 O    1.270130860959   -5.326938249263    0.000000000000
 H    2.054830860959   -4.751888249263    0.000000000000
RB    0.027750860959   -0.324798249263    0.000000000000
 O   -0.321278758811    3.760318435059    0.000000000000
 C   -0.222290754554    4.992849824117    0.000000000000
 O   -1.309390467099    5.786429497864    0.000000000000
 H   -2.094090544486    5.211379142634    0.000000000000
 C    1.052450502559    5.781371171649    0.000000000000
 H    1.918037620261    5.116162685107    0.000000000000
 H    1.067958105853    6.436533029110   -0.882512916431
 H    1.067958105853    6.436533029110    0.882512916431
