17

 C   -1.089216117168   -5.351057105935    0.000000000000
 H   -1.954806117168   -4.685847105935    0.000000000000
 H   -1.104726117168   -6.006217105935    0.882510000000
 H   -1.104726117168   -6.006217105935   -0.882510000000
 C    0.185523882832   -4.562537105935    0.000000000000
 O    0.284513882832   -3.330007105935    0.000000000000
 O    1.272623882832   -5.356117105935    0.000000000000
 H    2.057323882832   -4.781067105935    0.000000000000
RB    0.030243882832   -0.353977105935    0.000000000000
 O   -0.327298654493    3.830776570687    0.000000000000
 C   -0.228310650236    5.063307959745    0.000000000000
 O   -1.315410362781    5.856887633493    0.000000000000
 H   -2.100110440168    5.281837278263    0.000000000000
 C    1.046430606877    5.851829307278    0.000000000000
 H    1.912017724579    5.186620820736    0.000000000000
 H    1.061938210171    6.506991164739   -0.882512916431
 H    1.061938210171    6.506991164739    0.882512916431
