17

 C   -1.084230073421   -5.409414819278    0.000000000000
 H   -1.949820073421   -4.744204819278    0.000000000000
 H   -1.099740073421   -6.064574819278    0.882510000000
 H   -1.099740073421   -6.064574819278   -0.882510000000
 C    0.190509926579   -4.620894819278    0.000000000000
 O    0.289499926579   -3.388364819278    0.000000000000
 O    1.277609926579   -5.414474819278    0.000000000000
 H    2.062309926579   -4.839424819278    0.000000000000
RB    0.035229926579   -0.412334819278    0.000000000000
 O   -0.339338445857    3.971692841945    0.000000000000
 C   -0.240350441600    5.204224231003    0.000000000000
 O   -1.327450154145    5.997803904750    0.000000000000
 H   -2.112150231532    5.422753549521    0.000000000000
 C    1.034390815513    5.992745578535    0.000000000000
 H    1.899977933216    5.327537091993    0.000000000000
 H    1.049898418807    6.647907435996   -0.882512916431
 H    1.049898418807    6.647907435996    0.882512916431
