17

 C   -1.076751007801   -5.496951389293    0.000000000000
 H   -1.942341007801   -4.831741389293    0.000000000000
 H   -1.092261007801   -6.152111389293    0.882510000000
 H   -1.092261007801   -6.152111389293   -0.882510000000
 C    0.197988992199   -4.708431389293    0.000000000000
 O    0.296978992199   -3.475901389293    0.000000000000
 O    1.285088992199   -5.502011389293    0.000000000000
 H    2.069788992199   -4.926961389293    0.000000000000
RB    0.042708992199   -0.499871389293    0.000000000000
 O   -0.357398132902    4.183067248831    0.000000000000
 C   -0.258410128646    5.415598637889    0.000000000000
 O   -1.345509841191    6.209178311637    0.000000000000
 H   -2.130209918577    5.634127956407    0.000000000000
 C    1.016331128467    6.204119985422    0.000000000000
 H    1.881918246170    5.538911498880    0.000000000000
 H    1.031838731761    6.859281842883   -0.882512916431
 H    1.031838731761    6.859281842883    0.882512916431
