17

 C   -1.074257985928   -5.526130245965    0.000000000000
 H   -1.939847985928   -4.860920245965    0.000000000000
 H   -1.089767985928   -6.181290245965    0.882510000000
 H   -1.089767985928   -6.181290245965   -0.882510000000
 C    0.200482014072   -4.737610245965    0.000000000000
 O    0.299472014072   -3.505080245965    0.000000000000
 O    1.287582014072   -5.531190245965    0.000000000000
 H    2.072282014072   -4.956140245965    0.000000000000
RB    0.045202014072   -0.529050245965    0.000000000000
 O   -0.363418028584    4.253525384460    0.000000000000
 C   -0.264430024328    5.486056773518    0.000000000000
 O   -1.351529736873    6.279636447265    0.000000000000
 H   -2.136229814259    5.704586092036    0.000000000000
 C    1.010311232785    6.274578121050    0.000000000000
 H    1.875898350488    5.609369634508    0.000000000000
 H    1.025818836079    6.929739978511   -0.882512916431
 H    1.025818836079    6.929739978511    0.882512916431
