17

 C   -1.071764964054   -5.555309102637    0.000000000000
 H   -1.937354964054   -4.890099102637    0.000000000000
 H   -1.087274964054   -6.210469102637    0.882510000000
 H   -1.087274964054   -6.210469102637   -0.882510000000
 C    0.202975035946   -4.766789102637    0.000000000000
 O    0.301965035946   -3.534259102637    0.000000000000
 O    1.290075035946   -5.560369102637    0.000000000000
 H    2.074775035946   -4.985319102637    0.000000000000
RB    0.047695035946   -0.558229102637    0.000000000000
 O   -0.369437924266    4.323983520089    0.000000000000
 C   -0.270449920010    5.556514909147    0.000000000000
 O   -1.357549632555    6.350094582894    0.000000000000
 H   -2.142249709941    5.775044227665    0.000000000000
 C    1.004291337103    6.345036256679    0.000000000000
 H    1.869878454806    5.679827770137    0.000000000000
 H    1.019798940397    7.000198114140   -0.882512916431
 H    1.019798940397    7.000198114140    0.882512916431
