17

 C   -1.069271942181   -5.584487959309    0.000000000000
 H   -1.934861942181   -4.919277959309    0.000000000000
 H   -1.084781942181   -6.239647959309    0.882510000000
 H   -1.084781942181   -6.239647959309   -0.882510000000
 C    0.205468057819   -4.795967959309    0.000000000000
 O    0.304458057819   -3.563437959309    0.000000000000
 O    1.292568057819   -5.589547959309    0.000000000000
 H    2.077268057819   -5.014497959309    0.000000000000
RB    0.050188057819   -0.587407959309    0.000000000000
 O   -0.375457819948    4.394441655718    0.000000000000
 C   -0.276469815692    5.626973044776    0.000000000000
 O   -1.363569528237    6.420552718523    0.000000000000
 H   -2.148269605623    5.845502363293    0.000000000000
 C    0.998271441421    6.415494392308    0.000000000000
 H    1.863858559124    5.750285905766    0.000000000000
 H    1.013779044715    7.070656249769   -0.882512916431
 H    1.013779044715    7.070656249769    0.882512916431
