17

 C   -1.066778920307   -5.613666815980    0.000000000000
 H   -1.932368920307   -4.948456815980    0.000000000000
 H   -1.082288920307   -6.268826815980    0.882510000000
 H   -1.082288920307   -6.268826815980   -0.882510000000
 C    0.207961079693   -4.825146815980    0.000000000000
 O    0.306951079693   -3.592616815980    0.000000000000
 O    1.295061079693   -5.618726815980    0.000000000000
 H    2.079761079693   -5.043676815980    0.000000000000
RB    0.052681079693   -0.616586815980    0.000000000000
 O   -0.381477715630    4.464899791347    0.000000000000
 C   -0.282489711374    5.697431180405    0.000000000000
 O   -1.369589423919    6.491010854152    0.000000000000
 H   -2.154289501305    5.915960498922    0.000000000000
 C    0.992251545739    6.485952527937    0.000000000000
 H    1.857838663442    5.820744041395    0.000000000000
 H    1.007759149034    7.141114385398   -0.882512916431
 H    1.007759149034    7.141114385398    0.882512916431
