17

 C   -1.064285898434   -5.642845672652    0.000000000000
 H   -1.929875898434   -4.977635672652    0.000000000000
 H   -1.079795898434   -6.298005672652    0.882510000000
 H   -1.079795898434   -6.298005672652   -0.882510000000
 C    0.210454101566   -4.854325672652    0.000000000000
 O    0.309444101566   -3.621795672652    0.000000000000
 O    1.297554101566   -5.647905672652    0.000000000000
 H    2.082254101566   -5.072855672652    0.000000000000
RB    0.055174101566   -0.645765672652    0.000000000000
 O   -0.387497611312    4.535357926975    0.000000000000
 C   -0.288509607056    5.767889316033    0.000000000000
 O   -1.375609319601    6.561468989780    0.000000000000
 H   -2.160309396987    5.986418634551    0.000000000000
 C    0.986231650057    6.556410663566    0.000000000000
 H    1.851818767760    5.891202177024    0.000000000000
 H    1.001739253352    7.211572521027   -0.882512916431
 H    1.001739253352    7.211572521027    0.882512916431
