17

 C   -1.056806832814   -5.730382242667    0.000000000000
 H   -1.922396832814   -5.065172242667    0.000000000000
 H   -1.072316832814   -6.385542242667    0.882510000000
 H   -1.072316832814   -6.385542242667   -0.882510000000
 C    0.217933167186   -4.941862242667    0.000000000000
 O    0.316923167186   -3.709332242667    0.000000000000
 O    1.305033167186   -5.735442242667    0.000000000000
 H    2.089733167186   -5.160392242667    0.000000000000
RB    0.062653167186   -0.733302242667    0.000000000000
 O   -0.405557298358    4.746732333862    0.000000000000
 C   -0.306569294101    5.979263722920    0.000000000000
 O   -1.393669006646    6.772843396667    0.000000000000
 H   -2.178369084033    6.197793041437    0.000000000000
 C    0.968171963012    6.767785070452    0.000000000000
 H    1.833759080714    6.102576583910    0.000000000000
 H    0.983679566306    7.422946927913   -0.882512916431
 H    0.983679566306    7.422946927913    0.882512916431
