17

 C   -1.054313810940   -5.759561099339    0.000000000000
 H   -1.919903810940   -5.094351099339    0.000000000000
 H   -1.069823810940   -6.414721099339    0.882510000000
 H   -1.069823810940   -6.414721099339   -0.882510000000
 C    0.220426189060   -4.971041099339    0.000000000000
 O    0.319416189060   -3.738511099339    0.000000000000
 O    1.307526189060   -5.764621099339    0.000000000000
 H    2.092226189060   -5.189571099339    0.000000000000
RB    0.065146189060   -0.762481099339    0.000000000000
 O   -0.411577194040    4.817190469491    0.000000000000
 C   -0.312589189783    6.049721858549    0.000000000000
 O   -1.399688902328    6.843301532296    0.000000000000
 H   -2.184388979715    6.268251177066    0.000000000000
 C    0.962152067330    6.838243206081    0.000000000000
 H    1.827739185032    6.173034719539    0.000000000000
 H    0.977659670624    7.493405063542   -0.882512916431
 H    0.977659670624    7.493405063542    0.882512916431
