17

 C   -1.049327767193   -5.817918812682    0.000000000000
 H   -1.914917767193   -5.152708812682    0.000000000000
 H   -1.064837767193   -6.473078812682    0.882510000000
 H   -1.064837767193   -6.473078812682   -0.882510000000
 C    0.225412232807   -5.029398812682    0.000000000000
 O    0.324402232807   -3.796868812682    0.000000000000
 O    1.312512232807   -5.822978812682    0.000000000000
 H    2.097212232807   -5.247928812682    0.000000000000
RB    0.070132232807   -0.820838812682    0.000000000000
 O   -0.423616985404    4.958106740748    0.000000000000
 C   -0.324628981147    6.190638129806    0.000000000000
 O   -1.411728693692    6.984217803553    0.000000000000
 H   -2.196428771079    6.409167448324    0.000000000000
 C    0.950112275966    6.979159477338    0.000000000000
 H    1.815699393668    6.313950990796    0.000000000000
 H    0.965619879260    7.634321334799   -0.882512916431
 H    0.965619879260    7.634321334799    0.882512916431
