17

 C   -1.046834745320   -5.847097669354    0.000000000000
 H   -1.912424745320   -5.181887669354    0.000000000000
 H   -1.062344745320   -6.502257669354    0.882510000000
 H   -1.062344745320   -6.502257669354   -0.882510000000
 C    0.227905254680   -5.058577669354    0.000000000000
 O    0.326895254680   -3.826047669354    0.000000000000
 O    1.315005254680   -5.852157669354    0.000000000000
 H    2.099705254680   -5.277107669354    0.000000000000
RB    0.072625254680   -0.850017669354    0.000000000000
 O   -0.429636881086    5.028564876377    0.000000000000
 C   -0.330648876829    6.261096265435    0.000000000000
 O   -1.417748589374    7.054675939182    0.000000000000
 H   -2.202448666761    6.479625583953    0.000000000000
 C    0.944092380284    7.049617612967    0.000000000000
 H    1.809679497986    6.384409126425    0.000000000000
 H    0.959599983578    7.704779470428   -0.882512916431
 H    0.959599983578    7.704779470428    0.882512916431
