17

 C   -1.039355679700   -5.934634239369    0.000000000000
 H   -1.904945679700   -5.269424239369    0.000000000000
 H   -1.054865679700   -6.589794239369    0.882510000000
 H   -1.054865679700   -6.589794239369   -0.882510000000
 C    0.235384320300   -5.146114239369    0.000000000000
 O    0.334374320300   -3.913584239369    0.000000000000
 O    1.322484320300   -5.939694239369    0.000000000000
 H    2.107184320300   -5.364644239369    0.000000000000
RB    0.080104320300   -0.937554239369    0.000000000000
 O   -0.447696568132    5.239939283263    0.000000000000
 C   -0.348708563875    6.472470672321    0.000000000000
 O   -1.435808276420    7.266050346068    0.000000000000
 H   -2.220508353807    6.690999990839    0.000000000000
 C    0.926032693238    7.260992019854    0.000000000000
 H    1.791619810941    6.595783533312    0.000000000000
 H    0.941540296532    7.916153877315   -0.882512916431
 H    0.941540296532    7.916153877315    0.882512916431
