17

 C   -1.034369635953   -5.992991952713    0.000000000000
 H   -1.899959635953   -5.327781952713    0.000000000000
 H   -1.049879635953   -6.648151952713    0.882510000000
 H   -1.049879635953   -6.648151952713   -0.882510000000
 C    0.240370364047   -5.204471952713    0.000000000000
 O    0.339360364047   -3.971941952713    0.000000000000
 O    1.327470364047   -5.998051952713    0.000000000000
 H    2.112170364047   -5.423001952713    0.000000000000
RB    0.085090364047   -0.995911952713    0.000000000000
 O   -0.459736359496    5.380855554521    0.000000000000
 C   -0.360748355239    6.613386943579    0.000000000000
 O   -1.447848067784    7.406966617326    0.000000000000
 H   -2.232548145170    6.831916262097    0.000000000000
 C    0.913992901874    7.401908291111    0.000000000000
 H    1.779580019577    6.736699804569    0.000000000000
 H    0.929500505168    8.057070148572   -0.882512916431
 H    0.929500505168    8.057070148572    0.882512916431
