17

 C   -1.029383592206   -6.051349666056    0.000000000000
 H   -1.894973592206   -5.386139666056    0.000000000000
 H   -1.044893592206   -6.706509666056    0.882510000000
 H   -1.044893592206   -6.706509666056   -0.882510000000
 C    0.245356407794   -5.262829666056    0.000000000000
 O    0.344346407794   -4.030299666056    0.000000000000
 O    1.332456407794   -6.056409666056    0.000000000000
 H    2.117156407794   -5.481359666056    0.000000000000
RB    0.090076407794   -1.054269666056    0.000000000000
 O   -0.471776150859    5.521771825779    0.000000000000
 C   -0.372788146603    6.754303214837    0.000000000000
 O   -1.459887859148    7.547882888584    0.000000000000
 H   -2.244587936534    6.972832533354    0.000000000000
 C    0.901953110510    7.542824562369    0.000000000000
 H    1.767540228213    6.877616075827    0.000000000000
 H    0.917460713804    8.197986419830   -0.882512916431
 H    0.917460713804    8.197986419830    0.882512916431
