17

 C   -1.026890570333   -6.080528522728    0.000000000000
 H   -1.892480570333   -5.415318522728    0.000000000000
 H   -1.042400570333   -6.735688522728    0.882510000000
 H   -1.042400570333   -6.735688522728   -0.882510000000
 C    0.247849429667   -5.292008522728    0.000000000000
 O    0.346839429667   -4.059478522728    0.000000000000
 O    1.334949429667   -6.085588522728    0.000000000000
 H    2.119649429667   -5.510538522728    0.000000000000
RB    0.092569429667   -1.083448522728    0.000000000000
 O   -0.477796046541    5.592229961407    0.000000000000
 C   -0.378808042285    6.824761350465    0.000000000000
 O   -1.465907754830    7.618341024212    0.000000000000
 H   -2.250607832216    7.043290668983    0.000000000000
 C    0.895933214828    7.613282697998    0.000000000000
 H    1.761520332531    6.948074211456    0.000000000000
 H    0.911440818122    8.268444555459   -0.882512916431
 H    0.911440818122    8.268444555459    0.882512916431
