17

 C   -1.014425460966   -6.226422806087    0.000000000000
 H   -1.880015460966   -5.561212806087    0.000000000000
 H   -1.029935460966   -6.881582806087    0.882510000000
 H   -1.029935460966   -6.881582806087   -0.882510000000
 C    0.260314539034   -5.437902806087    0.000000000000
 O    0.359304539034   -4.205372806087    0.000000000000
 O    1.347414539034   -6.231482806087    0.000000000000
 H    2.132114539034   -5.656432806087    0.000000000000
RB    0.105034539034   -1.229342806087    0.000000000000
 O   -0.507895524951    5.944520639551    0.000000000000
 C   -0.408907520694    7.177052028609    0.000000000000
 O   -1.496007233239    7.970631702356    0.000000000000
 H   -2.280707310626    7.395581347127    0.000000000000
 C    0.865833736419    7.965573376142    0.000000000000
 H    1.731420854121    7.300364889600    0.000000000000
 H    0.881341339713    8.620735233603   -0.882512916431
 H    0.881341339713    8.620735233603    0.882512916431
