17

 C   -1.009439417219   -6.284780519430    0.000000000000
 H   -1.875029417219   -5.619570519430    0.000000000000
 H   -1.024949417219   -6.939940519430    0.882510000000
 H   -1.024949417219   -6.939940519430   -0.882510000000
 C    0.265300582781   -5.496260519430    0.000000000000
 O    0.364290582781   -4.263730519430    0.000000000000
 O    1.352400582781   -6.289840519430    0.000000000000
 H    2.137100582781   -5.714790519430    0.000000000000
RB    0.110020582781   -1.287700519430    0.000000000000
 O   -0.519935316315    6.085436910809    0.000000000000
 C   -0.420947312058    7.317968299867    0.000000000000
 O   -1.508047024603    8.111547973614    0.000000000000
 H   -2.292747101990    7.536497618385    0.000000000000
 C    0.853793945055    8.106489647399    0.000000000000
 H    1.719381062757    7.441281160857    0.000000000000
 H    0.869301548349    8.761651504860   -0.882512916431
 H    0.869301548349    8.761651504860    0.882512916431
