17

 C   -1.006946395345   -6.313959376102    0.000000000000
 H   -1.872536395345   -5.648749376102    0.000000000000
 H   -1.022456395345   -6.969119376102    0.882510000000
 H   -1.022456395345   -6.969119376102   -0.882510000000
 C    0.267793604655   -5.525439376102    0.000000000000
 O    0.366783604655   -4.292909376102    0.000000000000
 O    1.354893604655   -6.319019376102    0.000000000000
 H    2.139593604655   -5.743969376102    0.000000000000
RB    0.112513604655   -1.316879376102    0.000000000000
 O   -0.525955211997    6.155895046438    0.000000000000
 C   -0.426967207740    7.388426435496    0.000000000000
 O   -1.514066920285    8.182006109243    0.000000000000
 H   -2.298766997672    7.606955754013    0.000000000000
 C    0.847774049373    8.176947783028    0.000000000000
 H    1.713361167075    7.511739296486    0.000000000000
 H    0.863281652667    8.832109640489   -0.882512916431
 H    0.863281652667    8.832109640489    0.882512916431
