17

 C   -1.004453373472   -6.343138232774    0.000000000000
 H   -1.870043373472   -5.677928232774    0.000000000000
 H   -1.019963373472   -6.998298232774    0.882510000000
 H   -1.019963373472   -6.998298232774   -0.882510000000
 C    0.270286626528   -5.554618232774    0.000000000000
 O    0.369276626528   -4.322088232774    0.000000000000
 O    1.357386626528   -6.348198232774    0.000000000000
 H    2.142086626528   -5.773148232774    0.000000000000
RB    0.115006626528   -1.346058232774    0.000000000000
 O   -0.531975107679    6.226353182067    0.000000000000
 C   -0.432987103422    7.458884571125    0.000000000000
 O   -1.520086815967    8.252464244872    0.000000000000
 H   -2.304786893354    7.677413889642    0.000000000000
 C    0.841754153691    8.247405918657    0.000000000000
 H    1.707341271393    7.582197432115    0.000000000000
 H    0.857261756985    8.902567776118   -0.882512916431
 H    0.857261756985    8.902567776118    0.882512916431
