17

 C   -0.994481285978   -6.459853659461    0.000000000000
 H   -1.860071285978   -5.794643659461    0.000000000000
 H   -1.009991285978   -7.115013659461    0.882510000000
 H   -1.009991285978   -7.115013659461   -0.882510000000
 C    0.280258714022   -5.671333659461    0.000000000000
 O    0.379248714022   -4.438803659461    0.000000000000
 O    1.367358714022   -6.464913659461    0.000000000000
 H    2.152058714022   -5.889863659461    0.000000000000
RB    0.124978714022   -1.462773659461    0.000000000000
 O   -0.556054690407    6.508185724582    0.000000000000
 C   -0.457066686150    7.740717113640    0.000000000000
 O   -1.544166398695    8.534296787387    0.000000000000
 H   -2.328866476082    7.959246432157    0.000000000000
 C    0.817674570963    8.529238461172    0.000000000000
 H    1.683261688666    7.864029974630    0.000000000000
 H    0.833182174257    9.184400318633   -0.882512916431
 H    0.833182174257    9.184400318633    0.882512916431
