17

 C   -0.991988264105   -6.489032516132    0.000000000000
 H   -1.857578264105   -5.823822516132    0.000000000000
 H   -1.007498264105   -7.144192516132    0.882510000000
 H   -1.007498264105   -7.144192516132   -0.882510000000
 C    0.282751735895   -5.700512516132    0.000000000000
 O    0.381741735895   -4.467982516132    0.000000000000
 O    1.369851735895   -6.494092516132    0.000000000000
 H    2.154551735895   -5.919042516132    0.000000000000
RB    0.127471735895   -1.491952516132    0.000000000000
 O   -0.562074586089    6.578643860211    0.000000000000
 C   -0.463086581832    7.811175249269    0.000000000000
 O   -1.550186294377    8.604754923016    0.000000000000
 H   -2.334886371763    8.029704567786    0.000000000000
 C    0.811654675281    8.599696596801    0.000000000000
 H    1.677241792984    7.934488110259    0.000000000000
 H    0.827162278575    9.254858454262   -0.882512916431
 H    0.827162278575    9.254858454262    0.882512916431
