17

 C   -0.989495242232   -6.518211372804    0.000000000000
 H   -1.855085242232   -5.853001372804    0.000000000000
 H   -1.005005242232   -7.173371372804    0.882510000000
 H   -1.005005242232   -7.173371372804   -0.882510000000
 C    0.285244757768   -5.729691372804    0.000000000000
 O    0.384234757768   -4.497161372804    0.000000000000
 O    1.372344757768   -6.523271372804    0.000000000000
 H    2.157044757768   -5.948221372804    0.000000000000
RB    0.129964757768   -1.521131372804    0.000000000000
 O   -0.568094481771    6.649101995839    0.000000000000
 C   -0.469106477514    7.881633384897    0.000000000000
 O   -1.556206190059    8.675213058644    0.000000000000
 H   -2.340906267445    8.100162703415    0.000000000000
 C    0.805634779599    8.670154732430    0.000000000000
 H    1.671221897302    8.004946245888    0.000000000000
 H    0.821142382893    9.325316589891   -0.882512916431
 H    0.821142382893    9.325316589891    0.882512916431
