17

 C   -0.972044089118   -6.722463369506    0.000000000000
 H   -1.837634089118   -6.057253369506    0.000000000000
 H   -0.987554089118   -7.377623369506    0.882510000000
 H   -0.987554089118   -7.377623369506   -0.882510000000
 C    0.302695910882   -5.933943369506    0.000000000000
 O    0.401685910882   -4.701413369506    0.000000000000
 O    1.389795910882   -6.727523369506    0.000000000000
 H    2.174495910882   -6.152473369506    0.000000000000
RB    0.147415910882   -1.725383369506    0.000000000000
 O   -0.610233751544    7.142308945241    0.000000000000
 C   -0.511245747287    8.374840334299    0.000000000000
 O   -1.598345459832    9.168420008046    0.000000000000
 H   -2.383045537219    8.593369652817    0.000000000000
 C    0.763495509826    9.163361681831    0.000000000000
 H    1.629082627528    8.498153195289    0.000000000000
 H    0.779003113120    9.818523539292   -0.882512916431
 H    0.779003113120    9.818523539292    0.882512916431
