17

 C   -0.969551067244   -6.751642226178    0.000000000000
 H   -1.835141067244   -6.086432226178    0.000000000000
 H   -0.985061067244   -7.406802226178    0.882510000000
 H   -0.985061067244   -7.406802226178   -0.882510000000
 C    0.305188932756   -5.963122226178    0.000000000000
 O    0.404178932756   -4.730592226178    0.000000000000
 O    1.392288932756   -6.756702226178    0.000000000000
 H    2.176988932756   -6.181652226178    0.000000000000
RB    0.149908932756   -1.754562226178    0.000000000000
 O   -0.616253647226    7.212767080870    0.000000000000
 C   -0.517265642969    8.445298469928    0.000000000000
 O   -1.604365355514    9.238878143675    0.000000000000
 H   -2.389065432901    8.663827788445    0.000000000000
 C    0.757475614144    9.233819817460    0.000000000000
 H    1.623062731846    8.568611330918    0.000000000000
 H    0.772983217438    9.888981674921   -0.882512916431
 H    0.772983217438    9.888981674921    0.882512916431
