17

 C   -0.964565023498   -6.809999939521    0.000000000000
 H   -1.830155023498   -6.144789939521    0.000000000000
 H   -0.980075023498   -7.465159939521    0.882510000000
 H   -0.980075023498   -7.465159939521   -0.882510000000
 C    0.310174976502   -6.021479939521    0.000000000000
 O    0.409164976502   -4.788949939521    0.000000000000
 O    1.397274976502   -6.815059939521    0.000000000000
 H    2.181974976502   -6.240009939521    0.000000000000
RB    0.154894976502   -1.812919939521    0.000000000000
 O   -0.628293438590    7.353683352127    0.000000000000
 C   -0.529305434333    8.586214741185    0.000000000000
 O   -1.616405146878    9.379794414932    0.000000000000
 H   -2.401105224265    8.804744059703    0.000000000000
 C    0.745435822780    9.374736088718    0.000000000000
 H    1.611022940482    8.709527602176    0.000000000000
 H    0.760943426074   10.029897946179   -0.882512916431
 H    0.760943426074   10.029897946179    0.882512916431
