17

 C   -0.962072001624   -6.839178796193    0.000000000000
 H   -1.827662001624   -6.173968796193    0.000000000000
 H   -0.977582001624   -7.494338796193    0.882510000000
 H   -0.977582001624   -7.494338796193   -0.882510000000
 C    0.312667998376   -6.050658796193    0.000000000000
 O    0.411657998376   -4.818128796193    0.000000000000
 O    1.399767998376   -6.844238796193    0.000000000000
 H    2.184467998376   -6.269188796193    0.000000000000
RB    0.157387998376   -1.842098796193    0.000000000000
 O   -0.634313334272    7.424141487756    0.000000000000
 C   -0.535325330015    8.656672876814    0.000000000000
 O   -1.622425042560    9.450252550561    0.000000000000
 H   -2.407125119947    8.875202195332    0.000000000000
 C    0.739415927098    9.445194224346    0.000000000000
 H    1.605003044800    8.779985737804    0.000000000000
 H    0.754923530392   10.100356081807   -0.882512916431
 H    0.754923530392   10.100356081807    0.882512916431
