14

 C   -0.007516970350   -2.414456684111   -0.183487775930
 H    0.000205029650   -3.507631684111   -0.183487775930
 C    1.202959029650   -1.694617684111   -0.183487775930
 H    2.157978029650   -2.228316684111   -0.183487775930
 C   -1.227340970350   -1.714450684111   -0.183487775930
 H   -2.175472970350   -2.260262684111   -0.183487775930
 C    1.200551029650   -0.289472684111   -0.183487775930
 H    2.131905029650    0.283066315889   -0.183487775930
 C   -1.241191970350   -0.306969684111   -0.183487775930
 H   -2.193190970350    0.235751315889   -0.183487775930
 C   -0.024914970350    0.400812315889   -0.183487775930
 O    0.035632029650    1.781273315889   -0.183487775930
 H   -0.867498970350    2.129700315889   -0.183487775930
NA    0.067551982024    2.136954269840    0.750574414524
