14

 C   -0.008771045534   -2.428430723067   -0.220185331117
 H   -0.001049045534   -3.521605723067   -0.220185331117
 C    1.201704954466   -1.708591723067   -0.220185331117
 H    2.156723954466   -2.242290723067   -0.220185331117
 C   -1.228595045534   -1.728424723067   -0.220185331117
 H   -2.176727045534   -2.274236723067   -0.220185331117
 C    1.199296954466   -0.303446723067   -0.220185331117
 H    2.130650954466    0.269092276933   -0.220185331117
 C   -1.242446045534   -0.320943723067   -0.220185331117
 H   -2.194445045534    0.221777276933   -0.220185331117
 C   -0.026169045534    0.386838276933   -0.220185331117
 O    0.034377954466    1.767299276933   -0.220185331117
 H   -0.868753045534    2.115726276933   -0.220185331117
NA    0.072681897314    2.194116421675    0.900689297429
