14

 C   -0.009398083126   -2.435417742544   -0.238534108710
 H   -0.001676083126   -3.528592742544   -0.238534108710
 C    1.201077916874   -1.715578742544   -0.238534108710
 H    2.156096916874   -2.249277742544   -0.238534108710
 C   -1.229222083126   -1.735411742544   -0.238534108710
 H   -2.177354083126   -2.281223742544   -0.238534108710
 C    1.198669916874   -0.310433742544   -0.238534108710
 H    2.130023916874    0.262105257456   -0.238534108710
 C   -1.243073083126   -0.327930742544   -0.238534108710
 H   -2.195072083126    0.214790257456   -0.238534108710
 C   -0.026796083126    0.379851257456   -0.238534108710
 O    0.033750916874    1.760312257456   -0.238534108710
 H   -0.869380083126    2.108739257456   -0.238534108710
NA    0.075246854960    2.222697497592    0.975746738881
