14

 C   -0.010025120719   -2.442404762022   -0.256882886303
 H   -0.002303120719   -3.535579762022   -0.256882886303
 C    1.200450879281   -1.722565762022   -0.256882886303
 H    2.155469879281   -2.256264762022   -0.256882886303
 C   -1.229849120719   -1.742398762022   -0.256882886303
 H   -2.177981120719   -2.288210762022   -0.256882886303
 C    1.198042879281   -0.317420762022   -0.256882886303
 H    2.129396879281    0.255118237978   -0.256882886303
 C   -1.243700120719   -0.334917762022   -0.256882886303
 H   -2.195699120719    0.207803237978   -0.256882886303
 C   -0.027423120719    0.372864237978   -0.256882886303
 O    0.033123879281    1.753325237978   -0.256882886303
 H   -0.870007120719    2.101752237978   -0.256882886303
NA    0.077811812605    2.251278573509    1.050804180334
