14

 C   -0.010652158311   -2.449391781500   -0.275231663896
 H   -0.002930158311   -3.542566781500   -0.275231663896
 C    1.199823841689   -1.729552781500   -0.275231663896
 H    2.154842841689   -2.263251781500   -0.275231663896
 C   -1.230476158311   -1.749385781500   -0.275231663896
 H   -2.178608158311   -2.295197781500   -0.275231663896
 C    1.197415841689   -0.324407781500   -0.275231663896
 H    2.128769841689    0.248131218500   -0.275231663896
 C   -1.244327158311   -0.341904781500   -0.275231663896
 H   -2.196326158311    0.200816218500   -0.275231663896
 C   -0.028050158311    0.365877218500   -0.275231663896
 O    0.032496841689    1.746338218500   -0.275231663896
 H   -0.870634158311    2.094765218500   -0.275231663896
NA    0.080376770250    2.279859649427    1.125861621786
