14

 C   -0.011906233495   -2.463365820455   -0.311929219082
 H   -0.004184233495   -3.556540820455   -0.311929219082
 C    1.198569766505   -1.743526820455   -0.311929219082
 H    2.153588766505   -2.277225820455   -0.311929219082
 C   -1.231730233495   -1.763359820455   -0.311929219082
 H   -2.179862233495   -2.309171820455   -0.311929219082
 C    1.196161766505   -0.338381820455   -0.311929219082
 H    2.127515766505    0.234157179545   -0.311929219082
 C   -1.245581233495   -0.355878820455   -0.311929219082
 H   -2.197580233495    0.186842179545   -0.311929219082
 C   -0.029304233495    0.351903179545   -0.311929219082
 O    0.031242766505    1.732364179545   -0.311929219082
 H   -0.871888233495    2.080791179545   -0.311929219082
NA    0.085506685540    2.337021801261    1.275976504691
