14

 C   -0.013160308680   -2.477339859411   -0.348626774268
 H   -0.005438308680   -3.570514859411   -0.348626774268
 C    1.197315691320   -1.757500859411   -0.348626774268
 H    2.152334691320   -2.291199859411   -0.348626774268
 C   -1.232984308680   -1.777333859411   -0.348626774268
 H   -2.181116308680   -2.323145859411   -0.348626774268
 C    1.194907691320   -0.352355859411   -0.348626774268
 H    2.126261691320    0.220183140589   -0.348626774268
 C   -1.246835308680   -0.369852859411   -0.348626774268
 H   -2.198834308680    0.172868140589   -0.348626774268
 C   -0.030558308680    0.337929140589   -0.348626774268
 O    0.029988691320    1.718390140589   -0.348626774268
 H   -0.873142308680    2.066817140589   -0.348626774268
NA    0.090636600831    2.394183953096    1.426091387596
