14

 C   -0.063950353650   -3.043288437108   -1.834877759305
 H   -0.056228353650   -4.136463437108   -1.834877759305
 C    1.146525646350   -2.323449437108   -1.834877759305
 H    2.101544646350   -2.857148437108   -1.834877759305
 C   -1.283774353650   -2.343282437108   -1.834877759305
 H   -2.231906353650   -2.889094437108   -1.834877759305
 C    1.144117646350   -0.918304437108   -1.834877759305
 H    2.075471646350   -0.345765437108   -1.834877759305
 C   -1.297625353650   -0.935801437108   -1.834877759305
 H   -2.249624353650   -0.393080437108   -1.834877759305
 C   -0.081348353650   -0.228019437108   -1.834877759305
 O   -0.020801353650    1.152441562892   -1.834877759305
 H   -0.923932353650    1.500868562892   -1.834877759305
NA    0.298398170089    4.709251102402    7.505744145242
