14

 C   -0.013787346272   -2.484326878889   -0.366975551861
 H   -0.006065346272   -3.577501878889   -0.366975551861
 C    1.196688653728   -1.764487878889   -0.366975551861
 H    2.151707653728   -2.298186878889   -0.366975551861
 C   -1.233611346272   -1.784320878889   -0.366975551861
 H   -2.181743346272   -2.330132878889   -0.366975551861
 C    1.194280653728   -0.359342878889   -0.366975551861
 H    2.125634653728    0.213196121111   -0.366975551861
 C   -1.247462346272   -0.376839878889   -0.366975551861
 H   -2.199461346272    0.165881121111   -0.366975551861
 C   -0.031185346272    0.330942121111   -0.366975551861
 O    0.029361653728    1.711403121111   -0.366975551861
 H   -0.873769346272    2.059830121111   -0.366975551861
NA    0.093201558476    2.422765029013    1.501148829048
