14

 C   -0.015041421456   -2.498300917844   -0.403673107047
 H   -0.007319421456   -3.591475917844   -0.403673107047
 C    1.195434578544   -1.778461917844   -0.403673107047
 H    2.150453578544   -2.312160917844   -0.403673107047
 C   -1.234865421456   -1.798294917844   -0.403673107047
 H   -2.182997421456   -2.344106917844   -0.403673107047
 C    1.193026578544   -0.373316917844   -0.403673107047
 H    2.124380578544    0.199222082156   -0.403673107047
 C   -1.248716421456   -0.390813917844   -0.403673107047
 H   -2.200715421456    0.151907082156   -0.403673107047
 C   -0.032439421456    0.316968082156   -0.403673107047
 O    0.028107578544    1.697429082156   -0.403673107047
 H   -0.875023421456    2.045856082156   -0.403673107047
NA    0.098331473766    2.479927180848    1.651263711953
