14

 C   -0.016295496641   -2.512274956799   -0.440370662233
 H   -0.008573496641   -3.605449956799   -0.440370662233
 C    1.194180503359   -1.792435956799   -0.440370662233
 H    2.149199503359   -2.326134956799   -0.440370662233
 C   -1.236119496641   -1.812268956799   -0.440370662233
 H   -2.184251496641   -2.358080956799   -0.440370662233
 C    1.191772503359   -0.387290956799   -0.440370662233
 H    2.123126503359    0.185248043201   -0.440370662233
 C   -1.249970496641   -0.404787956799   -0.440370662233
 H   -2.201969496641    0.137933043201   -0.440370662233
 C   -0.033693496641    0.302994043201   -0.440370662233
 O    0.026853503359    1.683455043201   -0.440370662233
 H   -0.876277496641    2.031882043201   -0.440370662233
NA    0.103461389056    2.537089332683    1.801378594858
