14

 C   -0.020684759786   -2.561184093144   -0.568812105384
 H   -0.012962759786   -3.654359093144   -0.568812105384
 C    1.189791240214   -1.841345093144   -0.568812105384
 H    2.144810240214   -2.375044093144   -0.568812105384
 C   -1.240508759786   -1.861178093144   -0.568812105384
 H   -2.188640759786   -2.406990093144   -0.568812105384
 C    1.187383240214   -0.436200093144   -0.568812105384
 H    2.118737240214    0.136338906856   -0.568812105384
 C   -1.254359759786   -0.453697093144   -0.568812105384
 H   -2.206358759786    0.089023906856   -0.568812105384
 C   -0.038082759786    0.254084906856   -0.568812105384
 O    0.022464240214    1.634545906856   -0.568812105384
 H   -0.880666759786    1.982972906856   -0.568812105384
NA    0.121416092573    2.737156864104    2.326780685025
