14

 C   -0.021311797379   -2.568171112621   -0.587160882978
 H   -0.013589797379   -3.661346112621   -0.587160882978
 C    1.189164202621   -1.848332112621   -0.587160882978
 H    2.144183202621   -2.382031112621   -0.587160882978
 C   -1.241135797379   -1.868165112621   -0.587160882978
 H   -2.189267797379   -2.413977112621   -0.587160882978
 C    1.186756202621   -0.443187112621   -0.587160882978
 H    2.118110202621    0.129351887379   -0.587160882978
 C   -1.254986797379   -0.460684112621   -0.587160882978
 H   -2.206985797379    0.082036887379   -0.587160882978
 C   -0.038709797379    0.247097887379   -0.587160882978
 O    0.021837202621    1.627558887379   -0.587160882978
 H   -0.881293797379    1.975985887379   -0.587160882978
NA    0.123981050218    2.765737940022    2.401838126477
