14

 C   -0.021938834971   -2.575158132099   -0.605509660571
 H   -0.014216834971   -3.668333132099   -0.605509660571
 C    1.188537165029   -1.855319132099   -0.605509660571
 H    2.143556165029   -2.389018132099   -0.605509660571
 C   -1.241762834971   -1.875152132099   -0.605509660571
 H   -2.189894834971   -2.420964132099   -0.605509660571
 C    1.186129165029   -0.450174132099   -0.605509660571
 H    2.117483165029    0.122364867901   -0.605509660571
 C   -1.255613834971   -0.467671132099   -0.605509660571
 H   -2.207612834971    0.075049867901   -0.605509660571
 C   -0.039336834971    0.240110867901   -0.605509660571
 O    0.021210165029    1.620571867901   -0.605509660571
 H   -0.881920834971    1.968998867901   -0.605509660571
NA    0.126546007863    2.794319015939    2.476895567930
