14

 C   -0.022565872563   -2.582145151577   -0.623858438164
 H   -0.014843872563   -3.675320151577   -0.623858438164
 C    1.187910127437   -1.862306151577   -0.623858438164
 H    2.142929127437   -2.396005151577   -0.623858438164
 C   -1.242389872563   -1.882139151577   -0.623858438164
 H   -2.190521872563   -2.427951151577   -0.623858438164
 C    1.185502127437   -0.457161151577   -0.623858438164
 H    2.116856127437    0.115377848423   -0.623858438164
 C   -1.256240872563   -0.474658151577   -0.623858438164
 H   -2.208239872563    0.068062848423   -0.623858438164
 C   -0.039963872563    0.233123848423   -0.623858438164
 O    0.020583127437    1.613584848423   -0.623858438164
 H   -0.882547872563    1.962011848423   -0.623858438164
NA    0.129110965508    2.822900091856    2.551953009382
