14

 C   -0.023192910155   -2.589132171055   -0.642207215757
 H   -0.015470910155   -3.682307171055   -0.642207215757
 C    1.187283089845   -1.869293171055   -0.642207215757
 H    2.142302089845   -2.402992171055   -0.642207215757
 C   -1.243016910155   -1.889126171055   -0.642207215757
 H   -2.191148910155   -2.434938171055   -0.642207215757
 C    1.184875089845   -0.464148171055   -0.642207215757
 H    2.116229089845    0.108390828945   -0.642207215757
 C   -1.256867910155   -0.481645171055   -0.642207215757
 H   -2.208866910155    0.061075828945   -0.642207215757
 C   -0.040590910155    0.226136828945   -0.642207215757
 O    0.019956089845    1.606597828945   -0.642207215757
 H   -0.883174910155    1.955024828945   -0.642207215757
NA    0.131675923153    2.851481167774    2.627010450835
