14

 C   -0.024446985340   -2.603106210010   -0.678904770943
 H   -0.016724985340   -3.696281210010   -0.678904770943
 C    1.186029014660   -1.883267210010   -0.678904770943
 H    2.141048014660   -2.416966210010   -0.678904770943
 C   -1.244270985340   -1.903100210010   -0.678904770943
 H   -2.192402985340   -2.448912210010   -0.678904770943
 C    1.183621014660   -0.478122210010   -0.678904770943
 H    2.114975014660    0.094416789990   -0.678904770943
 C   -1.258121985340   -0.495619210010   -0.678904770943
 H   -2.210120985340    0.047101789990   -0.678904770943
 C   -0.041844985340    0.212162789990   -0.678904770943
 O    0.018702014660    1.592623789990   -0.678904770943
 H   -0.884428985340    1.941050789990   -0.678904770943
NA    0.136805838444    2.908643319608    2.777125333739
