14

 C   -0.029463286078   -2.659002365832   -0.825694991687
 H   -0.021741286078   -3.752177365832   -0.825694991687
 C    1.181012713922   -1.939163365832   -0.825694991687
 H    2.136031713922   -2.472862365832   -0.825694991687
 C   -1.249287286078   -1.958996365832   -0.825694991687
 H   -2.197419286078   -2.504808365832   -0.825694991687
 C    1.178604713922   -0.534018365832   -0.825694991687
 H    2.109958713922    0.038520634168   -0.825694991687
 C   -1.263138286078   -0.551515365832   -0.825694991687
 H   -2.215137286078   -0.008794365832   -0.825694991687
 C   -0.046861286078    0.156266634168   -0.825694991687
 O    0.013685713922    1.536727634168   -0.825694991687
 H   -0.889445286078    1.885154634168   -0.825694991687
NA    0.157325499605    3.137291926947    3.377584865359
