14

 C   -0.030090323670   -2.665989385310   -0.844043769280
 H   -0.022368323670   -3.759164385310   -0.844043769280
 C    1.180385676330   -1.946150385310   -0.844043769280
 H    2.135404676330   -2.479849385310   -0.844043769280
 C   -1.249914323670   -1.965983385310   -0.844043769280
 H   -2.198046323670   -2.511795385310   -0.844043769280
 C    1.177977676330   -0.541005385310   -0.844043769280
 H    2.109331676330    0.031533614690   -0.844043769280
 C   -1.263765323670   -0.558502385310   -0.844043769280
 H   -2.215764323670   -0.015781385310   -0.844043769280
 C   -0.047488323670    0.149279614690   -0.844043769280
 O    0.013058676330    1.529740614690   -0.844043769280
 H   -0.890072323670    1.878167614690   -0.844043769280
NA    0.159890457250    3.165873002865    3.452642306811
