14

 C   -0.030717361262   -2.672976404788   -0.862392546873
 H   -0.022995361262   -3.766151404788   -0.862392546873
 C    1.179758638738   -1.953137404788   -0.862392546873
 H    2.134777638738   -2.486836404788   -0.862392546873
 C   -1.250541361262   -1.972970404788   -0.862392546873
 H   -2.198673361262   -2.518782404788   -0.862392546873
 C    1.177350638738   -0.547992404788   -0.862392546873
 H    2.108704638738    0.024546595212   -0.862392546873
 C   -1.264392361262   -0.565489404788   -0.862392546873
 H   -2.216391361262   -0.022768404788   -0.862392546873
 C   -0.048115361262    0.142292595212   -0.862392546873
 O    0.012431638738    1.522753595212   -0.862392546873
 H   -0.890699361262    1.871180595212   -0.862392546873
NA    0.162455414895    3.194454078782    3.527699748264
