14

 C   -0.035106624408   -2.721885541132   -0.990833990025
 H   -0.027384624408   -3.815060541132   -0.990833990025
 C    1.175369375592   -2.002046541132   -0.990833990025
 H    2.130388375592   -2.535745541132   -0.990833990025
 C   -1.254930624408   -2.021879541132   -0.990833990025
 H   -2.203062624408   -2.567691541132   -0.990833990025
 C    1.172961375592   -0.596901541132   -0.990833990025
 H    2.104315375592   -0.024362541132   -0.990833990025
 C   -1.268781624408   -0.614398541132   -0.990833990025
 H   -2.220780624408   -0.071677541132   -0.990833990025
 C   -0.052504624408    0.093383458868   -0.990833990025
 O    0.008042375592    1.473844458868   -0.990833990025
 H   -0.895088624408    1.822271458868   -0.990833990025
NA    0.180410118411    3.394521610203    4.053101838431
