14

 C   -0.036360699592   -2.735859580087   -1.027531545211
 H   -0.028638699592   -3.829034580087   -1.027531545211
 C    1.174115300408   -2.016020580087   -1.027531545211
 H    2.129134300408   -2.549719580087   -1.027531545211
 C   -1.256184699592   -2.035853580087   -1.027531545211
 H   -2.204316699592   -2.581665580087   -1.027531545211
 C    1.171707300408   -0.610875580087   -1.027531545211
 H    2.103061300408   -0.038336580087   -1.027531545211
 C   -1.270035699592   -0.628372580087   -1.027531545211
 H   -2.222034699592   -0.085651580087   -1.027531545211
 C   -0.053758699592    0.079409419913   -1.027531545211
 O    0.006788300408    1.459870419913   -1.027531545211
 H   -0.896342699592    1.808297419913   -1.027531545211
NA    0.185540033702    3.451683762038    4.203216721335
