14

 C   -0.036987737184   -2.742846599565   -1.045880322804
 H   -0.029265737184   -3.836021599565   -1.045880322804
 C    1.173488262816   -2.023007599565   -1.045880322804
 H    2.128507262816   -2.556706599565   -1.045880322804
 C   -1.256811737184   -2.042840599565   -1.045880322804
 H   -2.204943737184   -2.588652599565   -1.045880322804
 C    1.171080262816   -0.617862599565   -1.045880322804
 H    2.102434262816   -0.045323599565   -1.045880322804
 C   -1.270662737184   -0.635359599565   -1.045880322804
 H   -2.222661737184   -0.092638599565   -1.045880322804
 C   -0.054385737184    0.072422400435   -1.045880322804
 O    0.006161262816    1.452883400435   -1.045880322804
 H   -0.896969737184    1.801310400435   -1.045880322804
NA    0.188104991347    3.480264837956    4.278274162788
