14

 C   -0.037614774776   -2.749833619043   -1.064229100397
 H   -0.029892774776   -3.843008619043   -1.064229100397
 C    1.172861225224   -2.029994619043   -1.064229100397
 H    2.127880225224   -2.563693619043   -1.064229100397
 C   -1.257438774776   -2.049827619043   -1.064229100397
 H   -2.205570774776   -2.595639619043   -1.064229100397
 C    1.170453225224   -0.624849619043   -1.064229100397
 H    2.101807225224   -0.052310619043   -1.064229100397
 C   -1.271289774776   -0.642346619043   -1.064229100397
 H   -2.223288774776   -0.099625619043   -1.064229100397
 C   -0.055012774776    0.065435380957   -1.064229100397
 O    0.005534225224    1.445896380957   -1.064229100397
 H   -0.897596774776    1.794323380957   -1.064229100397
NA    0.190669948992    3.508845913873    4.353331604240
