14

 C   -0.038868849961   -2.763807657998   -1.100926655583
 H   -0.031146849961   -3.856982657998   -1.100926655583
 C    1.171607150039   -2.043968657998   -1.100926655583
 H    2.126626150039   -2.577667657998   -1.100926655583
 C   -1.258692849961   -2.063801657998   -1.100926655583
 H   -2.206824849961   -2.609613657998   -1.100926655583
 C    1.169199150039   -0.638823657998   -1.100926655583
 H    2.100553150039   -0.066284657998   -1.100926655583
 C   -1.272543849961   -0.656320657998   -1.100926655583
 H   -2.224542849961   -0.113599657998   -1.100926655583
 C   -0.056266849961    0.051461342002   -1.100926655583
 O    0.004280150039    1.431922342002   -1.100926655583
 H   -0.898850849961    1.780349342002   -1.100926655583
NA    0.195799864282    3.566008065708    4.503446487145
