14

 C   -0.040749962738   -2.784768716431   -1.155972988362
 H   -0.033027962738   -3.877943716431   -1.155972988362
 C    1.169726037262   -2.064929716431   -1.155972988362
 H    2.124745037262   -2.598628716431   -1.155972988362
 C   -1.260573962738   -2.084762716431   -1.155972988362
 H   -2.208705962738   -2.630574716431   -1.155972988362
 C    1.167318037262   -0.659784716431   -1.155972988362
 H    2.098672037262   -0.087245716431   -1.155972988362
 C   -1.274424962738   -0.677281716431   -1.155972988362
 H   -2.226423962738   -0.134560716431   -1.155972988362
 C   -0.058147962738    0.030500283569   -1.155972988362
 O    0.002399037262    1.410961283569   -1.155972988362
 H   -0.900731962738    1.759388283569   -1.155972988362
NA    0.203494737218    3.651751293460    4.728618811502
