14

 C   -0.041377000330   -2.791755735909   -1.174321765955
 H   -0.033655000330   -3.884930735909   -1.174321765955
 C    1.169098999670   -2.071916735909   -1.174321765955
 H    2.124117999670   -2.605615735909   -1.174321765955
 C   -1.261201000330   -2.091749735909   -1.174321765955
 H   -2.209333000330   -2.637561735909   -1.174321765955
 C    1.166690999670   -0.666771735909   -1.174321765955
 H    2.098044999670   -0.094232735909   -1.174321765955
 C   -1.275052000330   -0.684268735909   -1.174321765955
 H   -2.227051000330   -0.141547735909   -1.174321765955
 C   -0.058775000330    0.023513264091   -1.174321765955
 O    0.001771999670    1.403974264091   -1.174321765955
 H   -0.901359000330    1.752401264091   -1.174321765955
NA    0.206059694863    3.680332369377    4.803676252955
