14

 C   -0.042631075514   -2.805729774865   -1.211019321141
 H   -0.034909075514   -3.898904774865   -1.211019321141
 C    1.167844924486   -2.085890774865   -1.211019321141
 H    2.122863924486   -2.619589774865   -1.211019321141
 C   -1.262455075514   -2.105723774865   -1.211019321141
 H   -2.210587075514   -2.651535774865   -1.211019321141
 C    1.165436924486   -0.680745774865   -1.211019321141
 H    2.096790924486   -0.108206774865   -1.211019321141
 C   -1.276306075514   -0.698242774865   -1.211019321141
 H   -2.228305075514   -0.155521774865   -1.211019321141
 C   -0.060029075514    0.009539225135   -1.211019321141
 O    0.000517924486    1.390000225135   -1.211019321141
 H   -0.902613075514    1.738427225135   -1.211019321141
NA    0.211189610153    3.737494521212    4.953791135860
