14

 C   -0.043258113106   -2.812716794342   -1.229368098734
 H   -0.035536113106   -3.905891794342   -1.229368098734
 C    1.167217886894   -2.092877794342   -1.229368098734
 H    2.122236886894   -2.626576794342   -1.229368098734
 C   -1.263082113106   -2.112710794342   -1.229368098734
 H   -2.211214113106   -2.658522794342   -1.229368098734
 C    1.164809886894   -0.687732794342   -1.229368098734
 H    2.096163886894   -0.115193794342   -1.229368098734
 C   -1.276933113106   -0.705229794342   -1.229368098734
 H   -2.228932113106   -0.162508794342   -1.229368098734
 C   -0.060656113106    0.002552205658   -1.229368098734
 O   -0.000109113106    1.383013205658   -1.229368098734
 H   -0.903240113106    1.731440205658   -1.229368098734
NA    0.213754567799    3.766075597129    5.028848577312
