14

 C   -0.043885150699   -2.819703813820   -1.247716876327
 H   -0.036163150699   -3.912878813820   -1.247716876327
 C    1.166590849301   -2.099864813820   -1.247716876327
 H    2.121609849301   -2.633563813820   -1.247716876327
 C   -1.263709150699   -2.119697813820   -1.247716876327
 H   -2.211841150699   -2.665509813820   -1.247716876327
 C    1.164182849301   -0.694719813820   -1.247716876327
 H    2.095536849301   -0.122180813820   -1.247716876327
 C   -1.277560150699   -0.712216813820   -1.247716876327
 H   -2.229559150699   -0.169495813820   -1.247716876327
 C   -0.061283150699   -0.004434813820   -1.247716876327
 O   -0.000736150699    1.376026186180   -1.247716876327
 H   -0.903867150699    1.724453186180   -1.247716876327
NA    0.216319525444    3.794656673046    5.103906018764
