14

 C   -0.045766263475   -2.840664872253   -1.302763209106
 H   -0.038044263475   -3.933839872253   -1.302763209106
 C    1.164709736525   -2.120825872253   -1.302763209106
 H    2.119728736525   -2.654524872253   -1.302763209106
 C   -1.265590263475   -2.140658872253   -1.302763209106
 H   -2.213722263475   -2.686470872253   -1.302763209106
 C    1.162301736525   -0.715680872253   -1.302763209106
 H    2.093655736525   -0.143141872253   -1.302763209106
 C   -1.279441263475   -0.733177872253   -1.302763209106
 H   -2.231440263475   -0.190456872253   -1.302763209106
 C   -0.063164263475   -0.025395872253   -1.302763209106
 O   -0.002617263475    1.355065127747   -1.302763209106
 H   -0.905748263475    1.703492127747   -1.302763209106
NA    0.224014398379    3.880399900799    5.329078343122
