14

 C   -0.048274413844   -2.868612950164   -1.376158319479
 H   -0.040552413844   -3.961787950164   -1.376158319479
 C    1.162201586156   -2.148773950164   -1.376158319479
 H    2.117220586156   -2.682472950164   -1.376158319479
 C   -1.268098413844   -2.168606950164   -1.376158319479
 H   -2.216230413844   -2.714418950164   -1.376158319479
 C    1.159793586156   -0.743628950164   -1.376158319479
 H    2.091147586156   -0.171089950164   -1.376158319479
 C   -1.281949413844   -0.761125950164   -1.376158319479
 H   -2.233948413844   -0.218404950164   -1.376158319479
 C   -0.065672413844   -0.053343950164   -1.376158319479
 O   -0.005125413844    1.327117049836   -1.376158319479
 H   -0.908256413844    1.675544049836   -1.376158319479
NA    0.234274228960    3.994724204468    5.629308108931
