14

 C   -0.048901451436   -2.875599969642   -1.394507097072
 H   -0.041179451436   -3.968774969642   -1.394507097072
 C    1.161574548564   -2.155760969642   -1.394507097072
 H    2.116593548564   -2.689459969642   -1.394507097072
 C   -1.268725451436   -2.175593969642   -1.394507097072
 H   -2.216857451436   -2.721405969642   -1.394507097072
 C    1.159166548564   -0.750615969642   -1.394507097072
 H    2.090520548564   -0.178076969642   -1.394507097072
 C   -1.282576451436   -0.768112969642   -1.394507097072
 H   -2.234575451436   -0.225391969642   -1.394507097072
 C   -0.066299451436   -0.060330969642   -1.394507097072
 O   -0.005752451436    1.320130030358   -1.394507097072
 H   -0.908883451436    1.668557030358   -1.394507097072
NA    0.236839186605    4.023305280385    5.704365550384
