14

 C   -0.052036639398   -2.910535067031   -1.486250985037
 H   -0.044314639398   -4.003710067031   -1.486250985037
 C    1.158439360602   -2.190696067031   -1.486250985037
 H    2.113458360602   -2.724395067031   -1.486250985037
 C   -1.271860639398   -2.210529067031   -1.486250985037
 H   -2.219992639398   -2.756341067031   -1.486250985037
 C    1.156031360602   -0.785551067031   -1.486250985037
 H    2.087385360602   -0.213012067031   -1.486250985037
 C   -1.285711639398   -0.803048067031   -1.486250985037
 H   -2.237710639398   -0.260327067031   -1.486250985037
 C   -0.069434639398   -0.095266067031   -1.486250985037
 O   -0.008887639398    1.285194932969   -1.486250985037
 H   -0.912018639398    1.633621932969   -1.486250985037
NA    0.249663974831    4.166210659972    6.079652757646
