14

 C   -0.053290714582   -2.924509105986   -1.522948540223
 H   -0.045568714582   -4.017684105986   -1.522948540223
 C    1.157185285418   -2.204670105986   -1.522948540223
 H    2.112204285418   -2.738369105986   -1.522948540223
 C   -1.273114714582   -2.224503105986   -1.522948540223
 H   -2.221246714582   -2.770315105986   -1.522948540223
 C    1.154777285418   -0.799525105986   -1.522948540223
 H    2.086131285418   -0.226986105986   -1.522948540223
 C   -1.286965714582   -0.817022105986   -1.522948540223
 H   -2.238964714582   -0.274301105986   -1.522948540223
 C   -0.070688714582   -0.109240105986   -1.522948540223
 O   -0.010141714582    1.271220894014   -1.522948540223
 H   -0.913272714582    1.619647894014   -1.522948540223
NA    0.254793890121    4.223372811807    6.229767640551
