14

 C   -0.054544789766   -2.938483144942   -1.559646095409
 H   -0.046822789766   -4.031658144942   -1.559646095409
 C    1.155931210234   -2.218644144942   -1.559646095409
 H    2.110950210234   -2.752343144942   -1.559646095409
 C   -1.274368789766   -2.238477144942   -1.559646095409
 H   -2.222500789766   -2.784289144942   -1.559646095409
 C    1.153523210234   -0.813499144942   -1.559646095409
 H    2.084877210234   -0.240960144942   -1.559646095409
 C   -1.288219789766   -0.830996144942   -1.559646095409
 H   -2.240218789766   -0.288275144942   -1.559646095409
 C   -0.071942789766   -0.123214144942   -1.559646095409
 O   -0.011395789766    1.257246855058   -1.559646095409
 H   -0.914526789766    1.605673855058   -1.559646095409
NA    0.259923805411    4.280534963641    6.379882523456
