14

 C   -0.055171827359   -2.945470164420   -1.577994873002
 H   -0.047449827359   -4.038645164420   -1.577994873002
 C    1.155304172641   -2.225631164420   -1.577994873002
 H    2.110323172641   -2.759330164420   -1.577994873002
 C   -1.274995827359   -2.245464164420   -1.577994873002
 H   -2.223127827359   -2.791276164420   -1.577994873002
 C    1.152896172641   -0.820486164420   -1.577994873002
 H    2.084250172641   -0.247947164420   -1.577994873002
 C   -1.288846827359   -0.837983164420   -1.577994873002
 H   -2.240845827359   -0.295262164420   -1.577994873002
 C   -0.072569827359   -0.130201164420   -1.577994873002
 O   -0.012022827359    1.250259835580   -1.577994873002
 H   -0.915153827359    1.598686835580   -1.577994873002
NA    0.262488763057    4.309116039559    6.454939964908
