14

 C   -0.055798864951   -2.952457183897   -1.596343650595
 H   -0.048076864951   -4.045632183897   -1.596343650595
 C    1.154677135049   -2.232618183897   -1.596343650595
 H    2.109696135049   -2.766317183897   -1.596343650595
 C   -1.275622864951   -2.252451183897   -1.596343650595
 H   -2.223754864951   -2.798263183897   -1.596343650595
 C    1.152269135049   -0.827473183897   -1.596343650595
 H    2.083623135049   -0.254934183897   -1.596343650595
 C   -1.289473864951   -0.844970183897   -1.596343650595
 H   -2.241472864951   -0.302249183897   -1.596343650595
 C   -0.073196864951   -0.137188183897   -1.596343650595
 O   -0.012649864951    1.243272816103   -1.596343650595
 H   -0.915780864951    1.591699816103   -1.596343650595
NA    0.265053720702    4.337697115476    6.529997406360
