14

 C   -0.057052940135   -2.966431222853   -1.633041205781
 H   -0.049330940135   -4.059606222853   -1.633041205781
 C    1.153423059865   -2.246592222853   -1.633041205781
 H    2.108442059865   -2.780291222853   -1.633041205781
 C   -1.276876940135   -2.266425222853   -1.633041205781
 H   -2.225008940135   -2.812237222853   -1.633041205781
 C    1.151015059865   -0.841447222853   -1.633041205781
 H    2.082369059865   -0.268908222853   -1.633041205781
 C   -1.290727940135   -0.858944222853   -1.633041205781
 H   -2.242726940135   -0.316223222853   -1.633041205781
 C   -0.074450940135   -0.151162222853   -1.633041205781
 O   -0.013903940135    1.229298777147   -1.633041205781
 H   -0.917034940135    1.577725777147   -1.633041205781
NA    0.270183635992    4.394859267311    6.680112289265
