14

 C   -0.058934052912   -2.987392281286   -1.688087538560
 H   -0.051212052912   -4.080567281286   -1.688087538560
 C    1.151541947088   -2.267553281286   -1.688087538560
 H    2.106560947088   -2.801252281286   -1.688087538560
 C   -1.278758052912   -2.287386281286   -1.688087538560
 H   -2.226890052912   -2.833198281286   -1.688087538560
 C    1.149133947088   -0.862408281286   -1.688087538560
 H    2.080487947088   -0.289869281286   -1.688087538560
 C   -1.292609052912   -0.879905281286   -1.688087538560
 H   -2.244608052912   -0.337184281286   -1.688087538560
 C   -0.076332052912   -0.172123281286   -1.688087538560
 O   -0.015785052912    1.208337718714   -1.688087538560
 H   -0.918916052912    1.556764718714   -1.688087538560
NA    0.277878508928    4.480602495063    6.905284613623
