14

 C   -0.059561090504   -2.994379300764   -1.706436316153
 H   -0.051839090504   -4.087554300764   -1.706436316153
 C    1.150914909496   -2.274540300764   -1.706436316153
 H    2.105933909496   -2.808239300764   -1.706436316153
 C   -1.279385090504   -2.294373300764   -1.706436316153
 H   -2.227517090504   -2.840185300764   -1.706436316153
 C    1.148506909496   -0.869395300764   -1.706436316153
 H    2.079860909496   -0.296856300764   -1.706436316153
 C   -1.293236090504   -0.886892300764   -1.706436316153
 H   -2.245235090504   -0.344171300764   -1.706436316153
 C   -0.076959090504   -0.179110300764   -1.706436316153
 O   -0.016412090504    1.201350699236   -1.706436316153
 H   -0.919543090504    1.549777699236   -1.706436316153
NA    0.280443466573    4.509183570980    6.980342055075
