14

 C   -0.062069240873   -3.022327378675   -1.779831426526
 H   -0.054347240873   -4.115502378675   -1.779831426526
 C    1.148406759127   -2.302488378675   -1.779831426526
 H    2.103425759127   -2.836187378675   -1.779831426526
 C   -1.281893240873   -2.322321378675   -1.779831426526
 H   -2.230025240873   -2.868133378675   -1.779831426526
 C    1.145998759127   -0.897343378675   -1.779831426526
 H    2.077352759127   -0.324804378675   -1.779831426526
 C   -1.295744240873   -0.914840378675   -1.779831426526
 H   -2.247743240873   -0.372119378675   -1.779831426526
 C   -0.079467240873   -0.207058378675   -1.779831426526
 O   -0.018920240873    1.173402621325   -1.779831426526
 H   -0.922051240873    1.521829621325   -1.779831426526
NA    0.290703297153    4.623507874650    7.280571820885
