7

 C    0.756417777978    1.798209459336    0.000000000000
 O    0.756417777978    0.363323459336    0.000000000000
 H    1.675427777978    0.066522459336    0.000000000000
 H   -0.296901222022    2.106198459336    0.000000000000
 H    1.245083777978    2.209142459336    0.899440000000
 H    1.245083777978    2.209142459336   -0.899440000000
RB   -0.295304314709   -0.400797368644    0.000000000000
