7

 C    0.815162649864    1.840890107063    0.000000000000
 O    0.815162649864    0.406004107063    0.000000000000
 H    1.734172649864    0.109203107063    0.000000000000
 H   -0.238156350136    2.148879107063    0.000000000000
 H    1.303828649864    2.251823107063    0.899440000000
 H    1.303828649864    2.251823107063   -0.899440000000
RB   -0.317461142261   -0.416895246147    0.000000000000
