7

 C    0.873907521749    1.883570754790    0.000000000000
 O    0.873907521749    0.448684754790    0.000000000000
 H    1.792917521749    0.151883754790    0.000000000000
 H   -0.179411478251    2.191559754790    0.000000000000
 H    1.362573521749    2.294503754790    0.899440000000
 H    1.362573521749    2.294503754790   -0.899440000000
RB   -0.339617969813   -0.432993123649    0.000000000000
