7

 C    0.991397265520    1.968932050243    0.000000000000
 O    0.991397265520    0.534046050243    0.000000000000
 H    1.910407265520    0.237245050243    0.000000000000
 H   -0.061921734480    2.276921050243    0.000000000000
 H    1.480063265520    2.379865050243    0.899440000000
 H    1.480063265520    2.379865050243   -0.899440000000
RB   -0.383931624918   -0.465188878654    0.000000000000
