7

 C    1.285121624946    2.182335288878    0.000000000000
 O    1.285121624946    0.747449288878    0.000000000000
 H    2.204131624946    0.450648288878    0.000000000000
 H    0.231802624946    2.490324288878    0.000000000000
 H    1.773787624946    2.593268288878    0.899440000000
 H    1.773787624946    2.593268288878   -0.899440000000
RB   -0.494715762679   -0.545678266166    0.000000000000
