7

 C    1.637590856258    2.438419175239    0.000000000000
 O    1.637590856258    1.003533175239    0.000000000000
 H    2.556600856258    0.706732175239    0.000000000000
 H    0.584271856258    2.746408175239    0.000000000000
 H    2.126256856258    2.849352175239    0.899440000000
 H    2.126256856258    2.849352175239   -0.899440000000
RB   -0.627656727992   -0.642265531180    0.000000000000
