7

 C    1.755080600029    2.523780470693    0.000000000000
 O    1.755080600029    1.088894470693    0.000000000000
 H    2.674090600029    0.792093470693    0.000000000000
 H    0.701761600029    2.831769470693    0.000000000000
 H    2.243746600029    2.934713470693    0.899440000000
 H    2.243746600029    2.934713470693   -0.899440000000
RB   -0.671970383096   -0.674461286184    0.000000000000
