7

 C    1.931315215684    2.651822413874    0.000000000000
 O    1.931315215684    1.216936413874    0.000000000000
 H    2.850325215684    0.920135413874    0.000000000000
 H    0.877996215684    2.959811413874    0.000000000000
 H    2.419981215684    3.062755413874    0.899440000000
 H    2.419981215684    3.062755413874   -0.899440000000
RB   -0.738440865753   -0.722754918691    0.000000000000
