7

 C    1.990060087570    2.694503061601    0.000000000000
 O    1.990060087570    1.259617061601    0.000000000000
 H    2.909070087570    0.962816061601    0.000000000000
 H    0.936741087570    3.002492061601    0.000000000000
 H    2.478726087570    3.105436061601    0.899440000000
 H    2.478726087570    3.105436061601   -0.899440000000
RB   -0.760597693305   -0.738852796194    0.000000000000
