7

 C    2.107549831340    2.779864357054    0.000000000000
 O    2.107549831340    1.344978357054    0.000000000000
 H    3.026559831340    1.048177357054    0.000000000000
 H    1.054230831340    3.087853357054    0.000000000000
 H    2.596215831340    3.190797357054    0.899440000000
 H    2.596215831340    3.190797357054   -0.899440000000
RB   -0.804911348409   -0.771048551199    0.000000000000
