7

 C    2.283784446996    2.907906300235    0.000000000000
 O    2.283784446996    1.473020300235    0.000000000000
 H    3.202794446996    1.176219300235    0.000000000000
 H    1.230465446996    3.215895300235    0.000000000000
 H    2.772450446996    3.318839300235    0.899440000000
 H    2.772450446996    3.318839300235   -0.899440000000
RB   -0.871381831066   -0.819342183706    0.000000000000
