7

 C    2.342529318882    2.950586947962    0.000000000000
 O    2.342529318882    1.515700947962    0.000000000000
 H    3.261539318882    1.218899947962    0.000000000000
 H    1.289210318882    3.258575947962    0.000000000000
 H    2.831195318882    3.361519947962    0.899440000000
 H    2.831195318882    3.361519947962   -0.899440000000
RB   -0.893538658618   -0.835440061208    0.000000000000
