7

 C    2.401274190767    2.993267595689    0.000000000000
 O    2.401274190767    1.558381595689    0.000000000000
 H    3.320284190767    1.261580595689    0.000000000000
 H    1.347955190767    3.301256595689    0.000000000000
 H    2.889940190767    3.404200595689    0.899440000000
 H    2.889940190767    3.404200595689   -0.899440000000
RB   -0.915695486170   -0.851537938710    0.000000000000
