7

 C    2.577508806423    3.121309538870    0.000000000000
 O    2.577508806423    1.686423538870    0.000000000000
 H    3.496518806423    1.389622538870    0.000000000000
 H    1.524189806423    3.429298538870    0.000000000000
 H    3.066174806423    3.532242538870    0.899440000000
 H    3.066174806423    3.532242538870   -0.899440000000
RB   -0.982165968827   -0.899831571217    0.000000000000
