7

 C    2.694998550193    3.206670834323    0.000000000000
 O    2.694998550193    1.771784834323    0.000000000000
 H    3.614008550193    1.474983834323    0.000000000000
 H    1.641679550193    3.514659834323    0.000000000000
 H    3.183664550193    3.617603834323    0.899440000000
 H    3.183664550193    3.617603834323   -0.899440000000
RB   -1.026479623931   -0.932027326222    0.000000000000
