7

 C    2.812488293964    3.292032129777    0.000000000000
 O    2.812488293964    1.857146129777    0.000000000000
 H    3.731498293964    1.560345129777    0.000000000000
 H    1.759169293964    3.600021129777    0.000000000000
 H    3.301154293964    3.702965129777    0.899440000000
 H    3.301154293964    3.702965129777   -0.899440000000
RB   -1.070793279036   -0.964223081227    0.000000000000
