7

 C    3.458681884702    3.761519254773    0.000000000000
 O    3.458681884702    2.326633254773    0.000000000000
 H    4.377691884702    2.029832254773    0.000000000000
 H    2.405362884702    4.069508254773    0.000000000000
 H    3.947347884702    4.172452254773    0.899440000000
 H    3.947347884702    4.172452254773   -0.899440000000
RB   -1.314518382110   -1.141299733753    0.000000000000
