7

 C    4.104875475440    4.231006379769    0.000000000000
 O    4.104875475440    2.796120379769    0.000000000000
 H    5.023885475440    2.499319379769    0.000000000000
 H    3.051556475440    4.538995379769    0.000000000000
 H    4.593541475440    4.641939379769    0.899440000000
 H    4.593541475440    4.641939379769   -0.899440000000
RB   -1.558243485184   -1.318376386279    0.000000000000
