16

 N   -1.611618783711    1.196269340554   -0.002160223480
 C   -0.379493051444    0.565979060546   -0.001205263172
 N   -0.109352115318   -0.754906414422   -0.004669452119
 C    1.218777053145   -0.973100307172    0.010897976544
 H    1.532585336115   -2.019779039662    0.014277547235
 N    2.231126496186   -0.065119350031    0.024869246819
 C    1.918909752279    1.245701733218    0.020222842919
 N    2.926536707081    2.170200370523   -0.021598994012
 H    3.857988244468    1.839670261771    0.200858940121
 H    2.693799201054    3.130171125562    0.203211251428
 C    0.553408911405    1.622395587085    0.011451755204
 N   -0.070120399786    2.861361287715    0.021329964222
 C   -1.370045886943    2.553281899354    0.012875111064
 H   -2.180099415730    3.279862700456    0.016923248927
 H   -2.515408460881    0.736012216720   -0.009763279413
RB   -0.869801707993   -1.683128326042   -0.015646691719
