16

 N   -1.587156271216    1.226128834634   -0.001807102295
 C   -0.355030538949    0.595838554626   -0.000852141987
 N   -0.084889602823   -0.725046920342   -0.004316330934
 C    1.243239565640   -0.943240813092    0.011251097729
 H    1.557047848610   -1.989919545582    0.014630668420
 N    2.255589008681   -0.035259855951    0.025222368004
 C    1.943372264774    1.275561227298    0.020575964104
 N    2.950999219576    2.200059864603   -0.021245872827
 H    3.882450756963    1.869529755851    0.201212061306
 H    2.718261713549    3.160030619642    0.203564372613
 C    0.577871423900    1.652255081165    0.011804876389
 N   -0.045657887291    2.891220781795    0.021683085407
 C   -1.345583374448    2.583141393434    0.013228232249
 H   -2.155636903235    3.309722194536    0.017276370112
 H   -2.490945948386    0.765871710800   -0.009410158228
RB   -0.908709994888   -1.730620657930   -0.016208340501
