16

 N   -1.562693758721    1.255988328714   -0.001453981111
 C   -0.330568026454    0.625698048706   -0.000499020803
 N   -0.060427090328   -0.695187426262   -0.003963209750
 C    1.267702078135   -0.913381319012    0.011604218913
 H    1.581510361105   -1.960060051502    0.014983789604
 N    2.280051521176   -0.005400361871    0.025575489188
 C    1.967834777269    1.305420721378    0.020929085288
 N    2.975461732071    2.229919358683   -0.020892751643
 H    3.906913269458    1.899389249931    0.201565182490
 H    2.742724226044    3.189890113722    0.203917493797
 C    0.602333936395    1.682114575245    0.012157997573
 N   -0.021195374796    2.921080275875    0.022036206591
 C   -1.321120861953    2.613000887514    0.013581353433
 H   -2.131174390740    3.339581688616    0.017629491296
 H   -2.466483435891    0.795731204880   -0.009057037044
RB   -0.947618281783   -1.778112989818   -0.016769989284
