16

 N   -1.538231246227    1.285847822794   -0.001100859926
 C   -0.306105513960    0.655557542786   -0.000145899618
 N   -0.035964577834   -0.665327932182   -0.003610088565
 C    1.292164590629   -0.883521824932    0.011957340098
 H    1.605972873599   -1.930200557422    0.015336910789
 N    2.304514033670    0.024459132209    0.025928610373
 C    1.992297289763    1.335280215458    0.021282206473
 N    2.999924244565    2.259778852763   -0.020539630458
 H    3.931375781952    1.929248744011    0.201918303675
 H    2.767186738538    3.219749607802    0.204270614982
 C    0.626796448889    1.711974069325    0.012511118758
 N    0.003267137698    2.950939769955    0.022389327776
 C   -1.296658349459    2.642860381594    0.013934474618
 H   -2.106711878246    3.369441182696    0.017982612481
 H   -2.442020923397    0.825590698960   -0.008703915859
RB   -0.986526568678   -1.825605321706   -0.017331638066
