16

 N   -1.513768733732    1.315707316875   -0.000747738742
 C   -0.281643001465    0.685417036867    0.000207221566
 N   -0.011502065339   -0.635468438101   -0.003256967381
 C    1.316627103124   -0.853662330851    0.012310461282
 H    1.630435386094   -1.900341063341    0.015690031973
 N    2.328976546165    0.054318626290    0.026281731557
 C    2.016759802258    1.365139709539    0.021635327657
 N    3.024386757060    2.289638346844   -0.020186509274
 H    3.955838294447    1.959108238092    0.202271424859
 H    2.791649251033    3.249609101883    0.204623736166
 C    0.651258961384    1.741833563406    0.012864239942
 N    0.027729650193    2.980799264036    0.022742448960
 C   -1.272195836964    2.672719875675    0.014287595802
 H   -2.082249365751    3.399300676777    0.018335733665
 H   -2.417558410902    0.855450193041   -0.008350794675
RB   -1.025434855573   -1.873097653594   -0.017893286848
