16

 N   -1.489306221237    1.345566810955   -0.000394617557
 C   -0.257180488970    0.715276530947    0.000560342751
 N    0.012960447156   -0.605608944021   -0.002903846196
 C    1.341089615619   -0.823802836771    0.012663582467
 H    1.654897898589   -1.870481569261    0.016043153158
 N    2.353439058660    0.084178120370    0.026634852742
 C    2.041222314753    1.394999203619    0.021988448842
 N    3.048849269555    2.319497840924   -0.019833388089
 H    3.980300806942    1.988967732172    0.202624546044
 H    2.816111763528    3.279468595963    0.204976857351
 C    0.675721473879    1.771693057486    0.013217361127
 N    0.052192162688    3.010658758116    0.023095570145
 C   -1.247733324469    2.702579369755    0.014640716987
 H   -2.057786853256    3.429160170857    0.018688854850
 H   -2.393095898407    0.885309687121   -0.007997673490
RB   -1.064343142468   -1.920589985482   -0.018454935630
