16

 N   -1.464843708742    1.375426305035   -0.000041496373
 C   -0.232717976475    0.745136025027    0.000913463935
 N    0.037422959651   -0.575749449941   -0.002550725012
 C    1.365552128114   -0.793943342691    0.013016703651
 H    1.679360411084   -1.840622075181    0.016396274342
 N    2.377901571155    0.114037614450    0.026987973926
 C    2.065684827248    1.424858697699    0.022341570026
 N    3.073311782050    2.349357335004   -0.019480266905
 H    4.004763319437    2.018827226252    0.202977667228
 H    2.840574276023    3.309328090043    0.205329978535
 C    0.700183986374    1.801552551566    0.013570482311
 N    0.076654675183    3.040518252196    0.023448691329
 C   -1.223270811974    2.732438863835    0.014993838171
 H   -2.033324340761    3.459019664937    0.019041976034
 H   -2.368633385912    0.915169181201   -0.007644552306
RB   -1.103251429363   -1.968082317370   -0.019016584413
