16

 N   -1.440381196248    1.405285799115    0.000311624812
 C   -0.208255463981    0.774995519107    0.001266585120
 N    0.061885472145   -0.545889955861   -0.002197603827
 C    1.390014640608   -0.764083848611    0.013369824836
 H    1.703822923578   -1.810762581101    0.016749395527
 N    2.402364083649    0.143897108530    0.027341095111
 C    2.090147339742    1.454718191779    0.022694691211
 N    3.097774294544    2.379216829084   -0.019127145720
 H    4.029225831931    2.048686720332    0.203330788413
 H    2.865036788517    3.339187584123    0.205683099720
 C    0.724646498868    1.831412045646    0.013923603496
 N    0.101117187677    3.070377746276    0.023801812514
 C   -1.198808299480    2.762298357915    0.015346959356
 H   -2.008861828267    3.488879159017    0.019395097219
 H   -2.344170873418    0.945028675281   -0.007291431121
RB   -1.142159716258   -2.015574649258   -0.019578233195
