16

 N   -1.391456171258    1.465004787276    0.001017867181
 C   -0.159330438991    0.834714507268    0.001972827489
 N    0.110810497135   -0.486170967700   -0.001491361458
 C    1.438939665598   -0.704364860450    0.014076067205
 H    1.752747948568   -1.751043592940    0.017455637896
 N    2.451289108639    0.203616096691    0.028047337480
 C    2.139072364732    1.514437179940    0.023400933580
 N    3.146699319534    2.438935817245   -0.018420903351
 H    4.078150856921    2.108405708493    0.204037030782
 H    2.913961813507    3.398906572284    0.206389342089
 C    0.773571523858    1.891131033807    0.014629845865
 N    0.150042212667    3.130096734437    0.024508054883
 C   -1.149883274490    2.822017346076    0.016053201725
 H   -1.959936803277    3.548598147178    0.020101339588
 H   -2.295245848428    1.004747663442   -0.006585188752
RB   -1.219976290047   -2.110559313034   -0.020701530759
