16

 N   -1.342531146269    1.524723775437    0.001724109550
 C   -0.110405414002    0.894433495429    0.002679069858
 N    0.159735522124   -0.426451979539   -0.000785119089
 C    1.487864690587   -0.644645872289    0.014782309574
 H    1.801672973557   -1.691324604779    0.018161880265
 N    2.500214133628    0.263335084852    0.028753579849
 C    2.187997389721    1.574156168101    0.024107175949
 N    3.195624344523    2.498654805406   -0.017714660982
 H    4.127075881910    2.168124696654    0.204743273151
 H    2.962886838496    3.458625560445    0.207095584458
 C    0.822496548847    1.950850021968    0.015336088234
 N    0.198967237656    3.189815722598    0.025214297252
 C   -1.100958249501    2.881736334237    0.016759444094
 H   -1.911011778288    3.608317135339    0.020807581957
 H   -2.246320823439    1.064466651603   -0.005878946383
RB   -1.297792863837   -2.205543976810   -0.021824828324
