16

 N   -1.318068633774    1.554583269517    0.002077230734
 C   -0.085942901507    0.924292989509    0.003032191042
 N    0.184198034619   -0.396592485459   -0.000431997905
 C    1.512327203082   -0.614786378209    0.015135430758
 H    1.826135486052   -1.661465110699    0.018515001449
 N    2.524676646123    0.293194578932    0.029106701033
 C    2.212459902216    1.604015662181    0.024460297133
 N    3.220086857018    2.528514299486   -0.017361539798
 H    4.151538394405    2.197984190734    0.205096394335
 H    2.987349350991    3.488485054525    0.207448705642
 C    0.846959061342    1.980709516048    0.015689209418
 N    0.223429750151    3.219675216678    0.025567418436
 C   -1.076495737006    2.911595828317    0.017112565278
 H   -1.886549265793    3.638176629419    0.021160703141
 H   -2.221858310944    1.094326145683   -0.005525825199
RB   -1.336701150732   -2.253036308698   -0.022386477106
