16

 N   -1.293606121280    1.584442763597    0.002430351918
 C   -0.061480389013    0.954152483589    0.003385312226
 N    0.208660547113   -0.366732991379   -0.000078876721
 C    1.536789715576   -0.584926884129    0.015488551942
 H    1.850597998546   -1.631605616619    0.018868122633
 N    2.549139158617    0.323054073012    0.029459822217
 C    2.236922414710    1.633875156261    0.024813418317
 N    3.244549369512    2.558373793566   -0.017008418614
 H    4.176000906899    2.227843684814    0.205449515519
 H    3.011811863485    3.518344548605    0.207801826826
 C    0.871421573836    2.010569010128    0.016042330602
 N    0.247892262645    3.249534710758    0.025920539620
 C   -1.052033224512    2.941455322397    0.017465686462
 H   -1.862086753299    3.668036123499    0.021513824325
 H   -2.197395798450    1.124185639763   -0.005172704015
RB   -1.375609437627   -2.300528640586   -0.022948125888
