16

 N   -1.269143608785    1.614302257677    0.002783473103
 C   -0.037017876518    0.984011977669    0.003738433411
 N    0.233123059608   -0.336873497299    0.000274244464
 C    1.561252228071   -0.555067390049    0.015841673127
 H    1.875060511041   -1.601746122539    0.019221243818
 N    2.573601671112    0.352913567092    0.029812943402
 C    2.261384927205    1.663734650341    0.025166539502
 N    3.269011882007    2.588233287646   -0.016655297429
 H    4.200463419394    2.257703178894    0.205802636704
 H    3.036274375980    3.548204042685    0.208154948011
 C    0.895884086331    2.040428504208    0.016395451787
 N    0.272354775140    3.279394204838    0.026273660805
 C   -1.027570712017    2.971314816477    0.017818807647
 H   -1.837624240804    3.697895617579    0.021866945510
 H   -2.172933285955    1.154045133843   -0.004819582830
RB   -1.414517724522   -2.348020972474   -0.023509774671
