16

 N   -1.244681096290    1.644161751758    0.003136594287
 C   -0.012555364023    1.013871471750    0.004091554595
 N    0.257585572103   -0.307014003218    0.000627365648
 C    1.585714740566   -0.525207895968    0.016194794311
 H    1.899523023536   -1.571886628458    0.019574365002
 N    2.598064183607    0.382773061173    0.030166064586
 C    2.285847439700    1.693594144422    0.025519660686
 N    3.293474394502    2.618092781727   -0.016302176245
 H    4.224925931889    2.287562672975    0.206155757888
 H    3.060736888475    3.578063536766    0.208508069195
 C    0.920346598826    2.070287998289    0.016748572971
 N    0.296817287635    3.309253698919    0.026626781989
 C   -1.003108199522    3.001174310558    0.018171928831
 H   -1.813161728309    3.727755111660    0.022220066694
 H   -2.148470773460    1.183904627924   -0.004466461646
RB   -1.453426011417   -2.395513304362   -0.024071423453
