16

 N   -1.146831046312    1.763599728079    0.004549079025
 C    0.085294685955    1.133309448071    0.005504039333
 N    0.355435622081   -0.187576026897    0.002039850386
 C    1.683564790544   -0.405769919647    0.017607279049
 H    1.997373073514   -1.452448652137    0.020986849740
 N    2.695914233585    0.502211037494    0.031578549324
 C    2.383697489678    1.813032120743    0.026932145424
 N    3.391324444480    2.737530758048   -0.014889691507
 H    4.322775981867    2.407000649296    0.207568242626
 H    3.158586938453    3.697501513087    0.209920553933
 C    1.018196648804    2.189725974610    0.018161057709
 N    0.394667337613    3.428691675240    0.028039266727
 C   -0.905258149544    3.120612286879    0.019584413569
 H   -1.715311678331    3.847193087981    0.023632551432
 H   -2.050620723482    1.303342604245   -0.003053976908
RB   -1.609059158997   -2.585482631914   -0.026318018582
