16

 N   -1.000055971344    1.942756692560    0.006667806132
 C    0.232069760923    1.312466412552    0.007622766440
 N    0.502210697049   -0.008419062416    0.004158577493
 C    1.830339865512   -0.226612955166    0.019726006156
 H    2.144148148482   -1.273291687656    0.023105576847
 N    2.842689308553    0.681368001975    0.033697276431
 C    2.530472564646    1.992189085224    0.029050872531
 N    3.538099519448    2.916687722529   -0.012770964400
 H    4.469551056835    2.586157613777    0.209686969733
 H    3.305362013421    3.876658477568    0.212039281040
 C    1.164971723772    2.368882939091    0.020279784816
 N    0.541442412581    3.607848639721    0.030157993834
 C   -0.758483074576    3.299769251360    0.021703140676
 H   -1.568536603363    4.026350052462    0.025751278539
 H   -1.903845648514    1.482499568726   -0.000935249801
RB   -1.842508880366   -2.870436623243   -0.029687911275
