16

 N   -0.975593458849    1.972616186640    0.007020927316
 C    0.256532273418    1.342325906632    0.007975887624
 N    0.526673209544    0.021440431664    0.004511698677
 C    1.854802378007   -0.196753461086    0.020079127340
 H    2.168610660977   -1.243432193576    0.023458698031
 N    2.867151821048    0.711227496055    0.034050397615
 C    2.554935077141    2.022048579304    0.029403993715
 N    3.562562031943    2.946547216609   -0.012417843216
 H    4.494013569330    2.616017107857    0.210040090917
 H    3.329824525916    3.906517971648    0.212392402224
 C    1.189434236267    2.398742433171    0.020632906000
 N    0.565904925076    3.637708133801    0.030511115018
 C   -0.734020562081    3.329628745440    0.022056261860
 H   -1.544074090868    4.056209546542    0.026104399723
 H   -1.879383136019    1.512359062806   -0.000582128617
RB   -1.881417167261   -2.917928955131   -0.030249560058
