16

 N   -0.926668433859    2.032335174801    0.007727169685
 C    0.305457298408    1.402044894793    0.008682129993
 N    0.575598234534    0.081159419825    0.005217941046
 C    1.903727402997   -0.137034472925    0.020785369709
 H    2.217535685967   -1.183713205415    0.024164940400
 N    2.916076846038    0.770946484216    0.034756639984
 C    2.603860102131    2.081767567465    0.030110236084
 N    3.611487056933    3.006266204770   -0.011711600847
 H    4.542938594320    2.675736096018    0.210746333286
 H    3.378749550906    3.966236959809    0.213098644593
 C    1.238359261257    2.458461421332    0.021339148369
 N    0.614829950066    3.697427121962    0.031217357387
 C   -0.685095537091    3.389347733601    0.022762504229
 H   -1.495149065878    4.115928534703    0.026810642092
 H   -1.830458111029    1.572078050967    0.000124113752
RB   -1.959233741051   -3.012913618907   -0.031372857622
