16

 N   -0.828818383881    2.151773151122    0.009139654423
 C    0.403307348386    1.521482871114    0.010094614731
 N    0.673448284512    0.200597396146    0.006630425784
 C    2.001577452975   -0.017596496604    0.022197854447
 H    2.315385735945   -1.064275229094    0.025577425138
 N    3.013926896016    0.890384460537    0.036169124722
 C    2.701710152109    2.201205543786    0.031522720822
 N    3.709337106911    3.125704181091   -0.010299116109
 H    4.640788644298    2.795174072339    0.212158818024
 H    3.476599600884    4.085674936130    0.214511129331
 C    1.336209311235    2.577899397653    0.022751633107
 N    0.712680000044    3.816865098283    0.032629842125
 C   -0.587245487113    3.508785709922    0.024174988967
 H   -1.397299015900    4.235366511024    0.028223126830
 H   -1.732608061051    1.691516027288    0.001536598490
RB   -2.114866888631   -3.202882946459   -0.033619452751
