16

 N   -0.804355871386    2.181632645202    0.009492775608
 C    0.427769860881    1.551342365194    0.010447735916
 N    0.697910797007    0.230456890226    0.006983546969
 C    2.026039965470    0.012262997476    0.022550975632
 H    2.339848248440   -1.034415735014    0.025930546323
 N    3.038389408511    0.920243954617    0.036522245907
 C    2.726172664604    2.231065037866    0.031875842007
 N    3.733799619406    3.155563675171   -0.009945994924
 H    4.665251156793    2.825033566419    0.212511939209
 H    3.501062113379    4.115534430210    0.214864250516
 C    1.360671823730    2.607758891733    0.023104754292
 N    0.737142512539    3.846724592363    0.032982963310
 C   -0.562782974618    3.538645204002    0.024528110152
 H   -1.372836503405    4.265226005104    0.028576248015
 H   -1.708145548556    1.721375521368    0.001889719675
RB   -2.153775175526   -3.250375278347   -0.034181101534
