16

 N   -0.779893358891    2.211492139283    0.009845896792
 C    0.452232373376    1.581201859275    0.010800857100
 N    0.722373309502    0.260316384307    0.007336668153
 C    2.050502477965    0.042122491557    0.022904096816
 H    2.364310760935   -1.004556240933    0.026283667507
 N    3.062851921006    0.950103448698    0.036875367091
 C    2.750635177099    2.260924531947    0.032228963191
 N    3.758262131901    3.185423169252   -0.009592873740
 H    4.689713669288    2.854893060500    0.212865060393
 H    3.525524625874    4.145393924291    0.215217371700
 C    1.385134336225    2.637618385814    0.023457875476
 N    0.761605025034    3.876584086444    0.033336084494
 C   -0.538320462123    3.568504698083    0.024881231336
 H   -1.348373990910    4.295085499185    0.028929369199
 H   -1.683683036061    1.751235015449    0.002242840859
RB   -2.192683462421   -3.297867610235   -0.034742750316
