16

 N   -0.730968333902    2.271211127443    0.010552139161
 C    0.501157398365    1.640920847435    0.011507099469
 N    0.771298334491    0.320035372467    0.008042910522
 C    2.099427502954    0.101841479717    0.023610339185
 H    2.413235785924   -0.944837252773    0.026989909876
 N    3.111776945995    1.009822436858    0.037581609460
 C    2.799560202088    2.320643520107    0.032935205560
 N    3.807187156890    3.245142157412   -0.008886631371
 H    4.738638694277    2.914612048660    0.213571302762
 H    3.574449650863    4.205112912451    0.215923614069
 C    1.434059361214    2.697337373974    0.024164117845
 N    0.810530050023    3.936303074604    0.034042326863
 C   -0.489395437134    3.628223686243    0.025587473705
 H   -1.299448965921    4.354804487345    0.029635611568
 H   -1.634758011072    1.810954003609    0.002949083228
RB   -2.270500036211   -3.392852274011   -0.035866047880
