16

 N   -0.706505821407    2.301070621523    0.010905260345
 C    0.525619910860    1.670780341515    0.011860220653
 N    0.795760846986    0.349894866547    0.008396031706
 C    2.123890015449    0.131700973797    0.023963460369
 H    2.437698298419   -0.914977758693    0.027343031060
 N    3.136239458490    1.039681930938    0.037934730644
 C    2.824022714583    2.350503014187    0.033288326744
 N    3.831649669385    3.275001651492   -0.008533510187
 H    4.763101206772    2.944471542740    0.213924423946
 H    3.598912163358    4.234972406531    0.216276735253
 C    1.458521873709    2.727196868054    0.024517239029
 N    0.834992562518    3.966162568684    0.034395448047
 C   -0.464932924639    3.658083180323    0.025940594889
 H   -1.274986453426    4.384663981425    0.029988732752
 H   -1.610295498577    1.840813497689    0.003302204412
RB   -2.309408323106   -3.440344605899   -0.036427696663
