16

 N   -0.657580796418    2.360789609684    0.011611502714
 C    0.574544935849    1.730499329676    0.012566463022
 N    0.844685871975    0.409613854708    0.009102274075
 C    2.172815040438    0.191419961958    0.024669702738
 H    2.486623323408   -0.855258770532    0.028049273429
 N    3.185164483479    1.099400919099    0.038640973013
 C    2.872947739572    2.410222002348    0.033994569113
 N    3.880574694374    3.334720639653   -0.007827267818
 H    4.812026231761    3.004190530901    0.214630666315
 H    3.647837188347    4.294691394692    0.216982977622
 C    1.507446898698    2.786915856215    0.025223481398
 N    0.883917587507    4.025881556845    0.035101690416
 C   -0.416007899650    3.717802168484    0.026646837258
 H   -1.226061428437    4.444382969586    0.030694975121
 H   -1.561370473588    1.900532485850    0.004008446781
RB   -2.387224896895   -3.535329269675   -0.037550994227
