16

 N   -0.608655771429    2.420508597844    0.012317745083
 C    0.623469960838    1.790218317836    0.013272705391
 N    0.893610896964    0.469332842868    0.009808516444
 C    2.221740065427    0.251138950118    0.025375945107
 H    2.535548348397   -0.795539782372    0.028755515798
 N    3.234089508468    1.159119907259    0.039347215382
 C    2.921872764561    2.469940990508    0.034700811482
 N    3.929499719363    3.394439627813   -0.007121025449
 H    4.860951256750    3.063909519061    0.215336908684
 H    3.696762213336    4.354410382852    0.217689219991
 C    1.556371923687    2.846634844375    0.025929723767
 N    0.932842612496    4.085600545005    0.035807932785
 C   -0.367082874661    3.777521156644    0.027353079627
 H   -1.177136403448    4.504101957746    0.031401217490
 H   -1.512445448599    1.960251474010    0.004714689150
RB   -2.465041470685   -3.630313933451   -0.038674291792
