16

 N   -0.535268233945    2.510087080085    0.013377108637
 C    0.696857498322    1.879796800077    0.014332068945
 N    0.966998434448    0.558911325109    0.010867879998
 C    2.295127602911    0.340717432359    0.026435308661
 H    2.608935885881   -0.705961300131    0.029814879352
 N    3.307477045952    1.248698389500    0.040406578936
 C    2.995260302045    2.559519472749    0.035760175036
 N    4.002887256847    3.484018110054   -0.006061661895
 H    4.934338794234    3.153488001302    0.216396272238
 H    3.770149750820    4.443988865093    0.218748583545
 C    1.629759461171    2.936213326616    0.026989087321
 N    1.006230149980    4.175179027246    0.036867296339
 C   -0.293695337177    3.867099638885    0.028412443181
 H   -1.103748865964    4.593680439987    0.032460581044
 H   -1.439057911115    2.049829956251    0.005774052704
RB   -2.581766331370   -3.772790929115   -0.040359238138
