16

 N   -0.486343208955    2.569806068246    0.014083351006
 C    0.745782523312    1.939515788238    0.015038311314
 N    1.015923459438    0.618630313270    0.011574122367
 C    2.344052627901    0.400436420520    0.027141551030
 H    2.657860910871   -0.646242311970    0.030521121721
 N    3.356402070942    1.308417377661    0.041112821305
 C    3.044185327035    2.619238460910    0.036466417405
 N    4.051812281837    3.543737098215   -0.005355419526
 H    4.983263819224    3.213206989463    0.217102514607
 H    3.819074775810    4.503707853254    0.219454825914
 C    1.678684486161    2.995932314777    0.027695329690
 N    1.055155174970    4.234898015407    0.037573538708
 C   -0.244770312187    3.926818627046    0.029118685550
 H   -1.054823840974    4.653399428148    0.033166823413
 H   -1.390132886125    2.109548944412    0.006480295073
RB   -2.659582905160   -3.867775592891   -0.041482535703
