16

 N   -0.437418183966    2.629525056406    0.014789593374
 C    0.794707548301    1.999234776398    0.015744553682
 N    1.064848484427    0.678349301430    0.012280364735
 C    2.392977652890    0.460155408680    0.027847793398
 H    2.706785935860   -0.586523323810    0.031227364089
 N    3.405327095931    1.368136365821    0.041819063673
 C    3.093110352024    2.678957449070    0.037172659773
 N    4.100737306826    3.603456086375   -0.004649177158
 H    5.032188844213    3.272925977623    0.217808756975
 H    3.867999800799    4.563426841414    0.220161068282
 C    1.727609511150    3.055651302937    0.028401572058
 N    1.104080199959    4.294617003567    0.038279781076
 C   -0.195845287198    3.986537615206    0.029824927918
 H   -1.005898815985    4.713118416308    0.033873065781
 H   -1.341207861136    2.169267932572    0.007186537441
RB   -2.737399478950   -3.962760256667   -0.042605833267
