16

 N   -0.388493158976    2.689244044567    0.015495835743
 C    0.843632573291    2.058953764559    0.016450796051
 N    1.113773509417    0.738068289591    0.012986607104
 C    2.441902677880    0.519874396841    0.028554035767
 H    2.755710960850   -0.526804335649    0.031933606458
 N    3.454252120921    1.427855353982    0.042525306042
 C    3.142035377014    2.738676437231    0.037878902142
 N    4.149662331816    3.663175074536   -0.003942934789
 H    5.081113869203    3.332644965784    0.218514999344
 H    3.916924825789    4.623145829575    0.220867310651
 C    1.776534536140    3.115370291098    0.029107814427
 N    1.153005224949    4.354335991728    0.038986023445
 C   -0.146920262208    4.046256603367    0.030531170287
 H   -0.956973790995    4.772837404469    0.034579308150
 H   -1.292282836146    2.228986920733    0.007892779810
RB   -2.815216052740   -4.057744920443   -0.043729130832
