16

 N   -0.364030646482    2.719103538647    0.015848956928
 C    0.868095085785    2.088813258639    0.016803917236
 N    1.138236021911    0.767927783671    0.013339728289
 C    2.466365190374    0.549733890921    0.028907156952
 H    2.780173473344   -0.496944841569    0.032286727643
 N    3.478714633415    1.457714848062    0.042878427227
 C    3.166497889508    2.768535931311    0.038232023327
 N    4.174124844310    3.693034568616   -0.003589813604
 H    5.105576381697    3.362504459864    0.218868120529
 H    3.941387338283    4.653005323655    0.221220431836
 C    1.800997048634    3.145229785178    0.029460935612
 N    1.177467737443    4.384195485808    0.039339144630
 C   -0.122457749714    4.076116097447    0.030884291472
 H   -0.932511278501    4.802696898549    0.034932429335
 H   -1.267820323652    2.258846414813    0.008245900995
RB   -2.854124339635   -4.105237252331   -0.044290779614
