16

 N   -0.315105621492    2.778822526808    0.016555199297
 C    0.917020110775    2.148532246800    0.017510159605
 N    1.187161046901    0.827646771832    0.014045970658
 C    2.515290215364    0.609452879082    0.029613399321
 H    2.829098498334   -0.437225853408    0.032992970012
 N    3.527639658405    1.517433836223    0.043584669596
 C    3.215422914498    2.828254919472    0.038938265696
 N    4.223049869300    3.752753556777   -0.002883571235
 H    5.154501406687    3.422223448025    0.219574362898
 H    3.990312363273    4.712724311816    0.221926674205
 C    1.849922073624    3.204948773339    0.030167177981
 N    1.226392762433    4.443914473969    0.040045386999
 C   -0.073532724724    4.135835085608    0.031590533841
 H   -0.883586253511    4.862415886710    0.035638671704
 H   -1.218895298662    2.318565402974    0.008952143364
RB   -2.931940913425   -4.200221916107   -0.045414077179
