16

 N   -0.290643108998    2.808682020888    0.016908320481
 C    0.941482623269    2.178391740880    0.017863280789
 N    1.211623559395    0.857506265912    0.014399091842
 C    2.539752727858    0.639312373162    0.029966520505
 H    2.853561010828   -0.407366359328    0.033346091196
 N    3.552102170899    1.547293330303    0.043937790780
 C    3.239885426992    2.858114413552    0.039291386880
 N    4.247512381794    3.782613050857   -0.002530450051
 H    5.178963919181    3.452082942105    0.219927484082
 H    4.014774875767    4.742583805896    0.222279795389
 C    1.874384586118    3.234808267419    0.030520299165
 N    1.250855274927    4.473773968049    0.040398508183
 C   -0.049070212230    4.165694579688    0.031943655025
 H   -0.859123741017    4.892275380790    0.035991792888
 H   -1.194432786168    2.348424897054    0.009305264548
RB   -2.970849200319   -4.247714247995   -0.045975725961
