16

 N   -0.241718084008    2.868401009048    0.017614562850
 C    0.990407648259    2.238110729040    0.018569523158
 N    1.260548584385    0.917225254072    0.015105334211
 C    2.588677752848    0.699031361322    0.030672762874
 H    2.902486035818   -0.347647371168    0.034052333565
 N    3.601027195889    1.607012318463    0.044644033149
 C    3.288810451982    2.917833401712    0.039997629249
 N    4.296437406784    3.842332039017   -0.001824207682
 H    5.227888944171    3.511801930265    0.220633726451
 H    4.063699900757    4.802302794056    0.222986037758
 C    1.923309611108    3.294527255579    0.031226541534
 N    1.299780299917    4.533492956209    0.041104750552
 C   -0.000145187240    4.225413567848    0.032649897394
 H   -0.810198716027    4.951994368950    0.036698035257
 H   -1.145507761178    2.408143885214    0.010011506917
RB   -3.048665774109   -4.342698911771   -0.047099023525
