16

 N   -0.217255571514    2.898260503129    0.017967684035
 C    1.014870160753    2.267970223121    0.018922644343
 N    1.285011096879    0.947084748153    0.015458455396
 C    2.613140265342    0.728890855403    0.031025884059
 H    2.926948548312   -0.317787877087    0.034405454750
 N    3.625489708383    1.636871812544    0.044997154334
 C    3.313272964476    2.947692895793    0.040350750434
 N    4.320899919278    3.872191533098   -0.001471086497
 H    5.252351456665    3.541661424346    0.220986847636
 H    4.088162413251    4.832162288137    0.223339158943
 C    1.947772123602    3.324386749660    0.031579662719
 N    1.324242812411    4.563352450290    0.041457871737
 C    0.024317325254    4.255273061929    0.033003018579
 H   -0.785736203533    4.981853863031    0.037051156442
 H   -1.121045248684    2.438003379295    0.010364628102
RB   -3.087574061004   -4.390191243659   -0.047660672308
