16

 N   -0.143868034030    2.987838985369    0.019027047588
 C    1.088257698237    2.357548705361    0.019982007896
 N    1.358398634363    1.036663230393    0.016517818949
 C    2.686527802826    0.818469337643    0.032085247612
 H    3.000336085796   -0.228209394847    0.035464818303
 N    3.698877245867    1.726450294784    0.046056517887
 C    3.386660501960    3.037271378033    0.041410113987
 N    4.394287456762    3.961770015338   -0.000411722944
 H    5.325738994149    3.631239906586    0.222046211189
 H    4.161549950735    4.921740770377    0.224398522496
 C    2.021159661086    3.413965231900    0.032639026272
 N    1.397630349895    4.652930932530    0.042517235290
 C    0.097704862738    4.344851544169    0.034062382132
 H   -0.712348666049    5.071432345271    0.038110519995
 H   -1.047657711200    2.527581861535    0.011423991655
RB   -3.204298921689   -4.532668239324   -0.049345618654
