16

 N   -0.070480496546    3.077417467610    0.020086411141
 C    1.161645235721    2.447127187602    0.021041371449
 N    1.431786171847    1.126241712634    0.017577182502
 C    2.759915340310    0.908047819884    0.033144611165
 H    3.073723623280   -0.138630912606    0.036524181856
 N    3.772264783351    1.816028777025    0.047115881440
 C    3.460048039444    3.126849860274    0.042469477540
 N    4.467674994246    4.051348497579    0.000647640609
 H    5.399126531633    3.720818388827    0.223105574742
 H    4.234937488219    5.011319252618    0.225457886049
 C    2.094547198570    3.503543714141    0.033698389825
 N    1.471017887379    4.742509414771    0.043576598843
 C    0.171092400222    4.434430026410    0.035121745685
 H   -0.638961128565    5.161010827512    0.039169883548
 H   -0.974270173716    2.617160343776    0.012483355208
RB   -3.321023782374   -4.675145234988   -0.051030565001
