16

 N   -0.046017984051    3.107276961691    0.020439532326
 C    1.186107748216    2.476986681683    0.021394492634
 N    1.456248684342    1.156101206715    0.017930303687
 C    2.784377852805    0.937907313965    0.033497732350
 H    3.098186135775   -0.108771418525    0.036877303041
 N    3.796727295846    1.845888271106    0.047469002625
 C    3.484510551939    3.156709354355    0.042822598725
 N    4.492137506741    4.081207991660    0.001000761794
 H    5.423589044128    3.750677882908    0.223458695927
 H    4.259400000714    5.041178746699    0.225811007234
 C    2.119009711065    3.533403208222    0.034051511010
 N    1.495480399874    4.772368908852    0.043929720028
 C    0.195554912717    4.464289520491    0.035474866870
 H   -0.614498616070    5.190870321593    0.039523004733
 H   -0.949807661221    2.647019837857    0.012836476393
RB   -3.359932069269   -4.722637566876   -0.051592213783
