16

 N    0.027369553433    3.196855443931    0.021498895879
 C    1.259495285700    2.566565163923    0.022453856187
 N    1.529636221826    1.245679688955    0.018989667240
 C    2.857765390289    1.027485796205    0.034557095903
 H    3.171573673259   -0.019192936285    0.037936666594
 N    3.870114833330    1.935466753346    0.048528366178
 C    3.557898089423    3.246287836595    0.043881962278
 N    4.565525044225    4.170786473900    0.002060125347
 H    5.496976581612    3.840256365148    0.224518059480
 H    4.332787538198    5.130757228939    0.226870370787
 C    2.192397248549    3.622981690462    0.035110874563
 N    1.568867937358    4.861947391092    0.044989083581
 C    0.268942450201    4.553868002731    0.036534230423
 H   -0.541111078586    5.280448803833    0.040582368286
 H   -0.876420123737    2.736598320097    0.013895839946
RB   -3.476656929954   -4.865114562540   -0.053277160130
