16

 N    0.051832065928    3.226714938012    0.021852017064
 C    1.283957798195    2.596424658004    0.022806977372
 N    1.554098734321    1.275539183036    0.019342788425
 C    2.882227902784    1.057345290286    0.034910217088
 H    3.196036185754    0.010666557796    0.038289787779
 N    3.894577345825    1.965326247427    0.048881487363
 C    3.582360601918    3.276147330676    0.044235083463
 N    4.589987556720    4.200645967981    0.002413246532
 H    5.521439094107    3.870115859229    0.224871180665
 H    4.357250050693    5.160616723020    0.227223491972
 C    2.216859761044    3.652841184543    0.035463995748
 N    1.593330449853    4.891806885173    0.045342204766
 C    0.293404962696    4.583727496812    0.036887351608
 H   -0.516648566091    5.310308297914    0.040935489471
 H   -0.851957611242    2.766457814178    0.014248961131
RB   -3.515565216849   -4.912606894428   -0.053838808912
