16

 N    0.100757090917    3.286433926172    0.022558259433
 C    1.332882823184    2.656143646164    0.023513219741
 N    1.603023759310    1.335258171196    0.020049030794
 C    2.931152927773    1.117064278446    0.035616459457
 H    3.244961210743    0.070385545956    0.038996030148
 N    3.943502370814    2.025045235587    0.049587729732
 C    3.631285626907    3.335866318836    0.044941325832
 N    4.638912581709    4.260364956141    0.003119488901
 H    5.570364119096    3.929834847389    0.225577423034
 H    4.406175075682    5.220335711180    0.227929734341
 C    2.265784786033    3.712560172703    0.036170238117
 N    1.642255474842    4.951525873333    0.046048447135
 C    0.342329987685    4.643446484972    0.037593593977
 H   -0.467723541102    5.370027286074    0.041641731840
 H   -0.803032586253    2.826176802338    0.014955203500
RB   -3.593381790638   -5.007591558204   -0.054962106477
