16

 N    0.149682115907    3.346152914333    0.023264501801
 C    1.381807848174    2.715862634325    0.024219462109
 N    1.651948784300    1.394977159357    0.020755273162
 C    2.980077952763    1.176783266607    0.036322701825
 H    3.293886235733    0.130104534117    0.039702272516
 N    3.992427395804    2.084764223748    0.050293972100
 C    3.680210651897    3.395585306997    0.045647568200
 N    4.687837606699    4.320083944302    0.003825731269
 H    5.619289144086    3.989553835550    0.226283665402
 H    4.455100100672    5.280054699341    0.228635976709
 C    2.314709811023    3.772279160864    0.036876480485
 N    1.691180499832    5.011244861494    0.046754689503
 C    0.391255012675    4.703165473133    0.038299836345
 H   -0.418798516112    5.429746274235    0.042347974208
 H   -0.754107561263    2.885895790499    0.015661445868
RB   -3.671198364428   -5.102576221980   -0.056085404042
