16

 N    0.271994678380    3.495450384734    0.025030107724
 C    1.504120410647    2.865160104726    0.025985068032
 N    1.774261346773    1.544274629758    0.022520879085
 C    3.102390515236    1.326080737008    0.038088307748
 H    3.416198798206    0.279402004518    0.041467878439
 N    4.114739958277    2.234061694149    0.052059578023
 C    3.802523214370    3.544882777398    0.047413174123
 N    4.810150169172    4.469381414703    0.005591337192
 H    5.741601706559    4.138851305951    0.228049271325
 H    4.577412663145    5.429352169742    0.230401582632
 C    2.437022373496    3.921576631265    0.038642086408
 N    1.813493062305    5.160542331895    0.048520295426
 C    0.513567575148    4.852462943534    0.040065442268
 H   -0.296485953639    5.579043744636    0.044113580131
 H   -0.631794998790    3.035193260900    0.017427051791
RB   -3.865739798903   -5.340037881420   -0.058893647953
