16

 N    0.418769753348    3.674607349216    0.027148834830
 C    1.650895485615    3.044317069208    0.028103795138
 N    1.921036421741    1.723431594240    0.024639606191
 C    3.249165590204    1.505237701490    0.040207034854
 H    3.562973873174    0.458558969000    0.043586605545
 N    4.261515033245    2.413218658631    0.054178305129
 C    3.949298289338    3.724039741880    0.049531901229
 N    4.956925244140    4.648538379185    0.007710064298
 H    5.888376781527    4.318008270433    0.230167998431
 H    4.724187738113    5.608509134224    0.232520309738
 C    2.583797448464    4.100733595747    0.040760813514
 N    1.960268137273    5.339699296377    0.050639022532
 C    0.660342650116    5.031619908016    0.042184169374
 H   -0.149710878671    5.758200709118    0.046232307237
 H   -0.485019923822    3.214350225382    0.019545778897
RB   -4.099189520273   -5.624991872748   -0.062263540646
