16

 N    0.516619803327    3.794045325537    0.028561319568
 C    1.748745535594    3.163755045529    0.029516279876
 N    2.018886471720    1.842869570561    0.026052090929
 C    3.347015640183    1.624675677811    0.041619519592
 H    3.660823923153    0.577996945321    0.044999090283
 N    4.359365083224    2.532656634952    0.055590789867
 C    4.047148339317    3.843477718201    0.050944385967
 N    5.054775294119    4.767976355506    0.009122549036
 H    5.986226831506    4.437446246754    0.231580483169
 H    4.822037788092    5.727947110545    0.233932794476
 C    2.681647498443    4.220171572068    0.042173298252
 N    2.058118187252    5.459137272698    0.052051507270
 C    0.758192700095    5.151057884337    0.043596654112
 H   -0.051860828692    5.877638685439    0.047644791975
 H   -0.387169873843    3.333788201703    0.020958263635
RB   -4.254822667852   -5.814961200300   -0.064510135775
