7

 H   -0.604657598298    2.079563726013    0.000000000000
 H    0.934901401702    2.170542726013    0.902247000000
 H    0.934901401702    2.170542726013   -0.902247000000
 C    0.451090401702    1.774022726013    0.000000000000
 S    0.451090401702   -0.058703273987    0.000000000000
 H    1.791673401702   -0.215094273987    0.000000000000
 K   -0.588140082840   -0.658703273987    0.000000000000
