7

 H   -0.565857214865    2.101965137833    0.000000000000
 H    0.973701785135    2.192944137833    0.902247000000
 H    0.973701785135    2.192944137833   -0.902247000000
 C    0.489890785135    1.796424137833    0.000000000000
 S    0.489890785135   -0.036301862167    0.000000000000
 H    1.830473785135   -0.192692862167    0.000000000000
 K   -0.635942239785   -0.686301862167    0.000000000000
