7

 H    2.809776143799    4.050887966143    0.000000000000
 H    4.349335143799    4.141866966143    0.902247000000
 H    4.349335143799    4.141866966143   -0.902247000000
 C    3.865524143799    3.745346966143    0.000000000000
 S    3.865524143799    1.912620966143    0.000000000000
 H    5.206107143799    1.756229966143    0.000000000000
 K   -4.794729894045   -3.087379033857    0.000000000000
