7

 H   -0.177853380536    2.325979256029    0.000000000000
 H    1.361705619464    2.416958256029    0.902247000000
 H    1.361705619464    2.416958256029   -0.902247000000
 C    0.877894619464    2.020438256029    0.000000000000
 S    0.877894619464    0.187712256029    0.000000000000
 H    2.218477619464    0.031321256029    0.000000000000
 K   -1.113963809240   -0.962287743971    0.000000000000
