7

 H   -0.139052997103    2.348380667849    0.000000000000
 H    1.400506002897    2.439359667849    0.902247000000
 H    1.400506002897    2.439359667849   -0.902247000000
 C    0.916695002897    2.042839667849    0.000000000000
 S    0.916695002897    0.210113667849    0.000000000000
 H    2.257278002897    0.053722667849    0.000000000000
 K   -1.161765966186   -0.989886332151    0.000000000000
