7

 H    0.326551604092    2.617197609685    0.000000000000
 H    1.866110604092    2.708176609685    0.902247000000
 H    1.866110604092    2.708176609685   -0.902247000000
 C    1.382299604092    2.311656609685    0.000000000000
 S    1.382299604092    0.478930609685    0.000000000000
 H    2.722882604092    0.322539609685    0.000000000000
 K   -1.735391849532   -1.321069390315    0.000000000000
