7

 H    0.404152370958    2.662000433324    0.000000000000
 H    1.943711370958    2.752979433324    0.902247000000
 H    1.943711370958    2.752979433324   -0.902247000000
 C    1.459900370958    2.356459433324    0.000000000000
 S    1.459900370958    0.523733433324    0.000000000000
 H    2.800483370958    0.367342433324    0.000000000000
 K   -1.830996163423   -1.376266566676    0.000000000000
