7

 H    0.481753137824    2.706803256964    0.000000000000
 H    2.021312137824    2.797782256964    0.902247000000
 H    2.021312137824    2.797782256964   -0.902247000000
 C    1.537501137824    2.401262256964    0.000000000000
 S    1.537501137824    0.568536256964    0.000000000000
 H    2.878084137824    0.412145256964    0.000000000000
 K   -1.926600477314   -1.431463743036    0.000000000000
