7

 H    0.675755054988    2.818810316062    0.000000000000
 H    2.215314054988    2.909789316062    0.902247000000
 H    2.215314054988    2.909789316062   -0.902247000000
 C    1.731503054988    2.513269316062    0.000000000000
 S    1.731503054988    0.680543316062    0.000000000000
 H    3.072086054988    0.524152316062    0.000000000000
 K   -2.165611262042   -1.569456683938    0.000000000000
