7

 H    0.830956588720    2.908415963341    0.000000000000
 H    2.370515588720    2.999394963341    0.902247000000
 H    2.370515588720    2.999394963341   -0.902247000000
 C    1.886704588720    2.602874963341    0.000000000000
 S    1.886704588720    0.770148963341    0.000000000000
 H    3.227287588720    0.613757963341    0.000000000000
 K   -2.356819889824   -1.679851036659    0.000000000000
