7

 H    0.947357739019    2.975620198799    0.000000000000
 H    2.486916739019    3.066599198799    0.902247000000
 H    2.486916739019    3.066599198799   -0.902247000000
 C    2.003105739019    2.670079198799    0.000000000000
 S    2.003105739019    0.837353198799    0.000000000000
 H    3.343688739019    0.680962198799    0.000000000000
 K   -2.500226360660   -1.762646801200    0.000000000000
