7

 H    1.102559272751    3.065225846078    0.000000000000
 H    2.642118272751    3.156204846078    0.902247000000
 H    2.642118272751    3.156204846078   -0.902247000000
 C    2.158307272751    2.759684846078    0.000000000000
 S    2.158307272751    0.926958846078    0.000000000000
 H    3.498890272751    0.770567846078    0.000000000000
 K   -2.691434988442   -1.873041153922    0.000000000000
