7

 H    1.335361573348    3.199634316996    0.000000000000
 H    2.874920573348    3.290613316996    0.902247000000
 H    2.874920573348    3.290613316996   -0.902247000000
 C    2.391109573348    2.894093316996    0.000000000000
 S    2.391109573348    1.061367316996    0.000000000000
 H    3.731692573348    0.904976316996    0.000000000000
 K   -2.978247930115   -2.038632683004    0.000000000000
