7

 H    1.374161956781    3.222035728816    0.000000000000
 H    2.913720956781    3.313014728816    0.902247000000
 H    2.913720956781    3.313014728816   -0.902247000000
 C    2.429909956781    2.916494728816    0.000000000000
 S    2.429909956781    1.083768728816    0.000000000000
 H    3.770492956781    0.927377728816    0.000000000000
 K   -3.026050087061   -2.066231271184    0.000000000000
