7

 H    1.412962340214    3.244437140635    0.000000000000
 H    2.952521340214    3.335416140635    0.902247000000
 H    2.952521340214    3.335416140635   -0.902247000000
 C    2.468710340214    2.938896140635    0.000000000000
 S    2.468710340214    1.106170140635    0.000000000000
 H    3.809293340214    0.949779140635    0.000000000000
 K   -3.073852244006   -2.093829859365    0.000000000000
