7

 H    1.529363490513    3.311641376094    0.000000000000
 H    3.068922490513    3.402620376094    0.902247000000
 H    3.068922490513    3.402620376094   -0.902247000000
 C    2.585111490513    3.006100376094    0.000000000000
 S    2.585111490513    1.173374376094    0.000000000000
 H    3.925694490513    1.016983376094    0.000000000000
 K   -3.217258714843   -2.176625623906    0.000000000000
