7

 H    1.606964257379    3.356444199734    0.000000000000
 H    3.146523257379    3.447423199734    0.902247000000
 H    3.146523257379    3.447423199734   -0.902247000000
 C    2.662712257379    3.050903199734    0.000000000000
 S    2.662712257379    1.218177199734    0.000000000000
 H    4.003295257379    1.061786199734    0.000000000000
 K   -3.312863028734   -2.231822800266    0.000000000000
