7

 H    1.645764640812    3.378845611553    0.000000000000
 H    3.185323640812    3.469824611553    0.902247000000
 H    3.185323640812    3.469824611553   -0.902247000000
 C    2.701512640812    3.073304611553    0.000000000000
 S    2.701512640812    1.240578611553    0.000000000000
 H    4.042095640812    1.084187611553    0.000000000000
 K   -3.360665185680   -2.259421388447    0.000000000000
