7

 H    1.723365407677    3.423648435193    0.000000000000
 H    3.262924407677    3.514627435193    0.902247000000
 H    3.262924407677    3.514627435193   -0.902247000000
 C    2.779113407677    3.118107435193    0.000000000000
 S    2.779113407677    1.285381435193    0.000000000000
 H    4.119696407677    1.128990435193    0.000000000000
 K   -3.456269499571   -2.314618564807    0.000000000000
