7

 H    1.800966174543    3.468451258832    0.000000000000
 H    3.340525174543    3.559430258832    0.902247000000
 H    3.340525174543    3.559430258832   -0.902247000000
 C    2.856714174543    3.162910258832    0.000000000000
 S    2.856714174543    1.330184258832    0.000000000000
 H    4.197297174543    1.173793258832    0.000000000000
 K   -3.551873813462   -2.369815741168    0.000000000000
