7

 H    1.839766557976    3.490852670652    0.000000000000
 H    3.379325557976    3.581831670652    0.902247000000
 H    3.379325557976    3.581831670652   -0.902247000000
 C    2.895514557976    3.185311670652    0.000000000000
 S    2.895514557976    1.352585670652    0.000000000000
 H    4.236097557976    1.196194670652    0.000000000000
 K   -3.599675970407   -2.397414329348    0.000000000000
