7

 H    1.878566941409    3.513254082471    0.000000000000
 H    3.418125941409    3.604233082471    0.902247000000
 H    3.418125941409    3.604233082471   -0.902247000000
 C    2.934314941409    3.207713082471    0.000000000000
 S    2.934314941409    1.374987082471    0.000000000000
 H    4.274897941409    1.218596082471    0.000000000000
 K   -3.647478127353   -2.425012917529    0.000000000000
