7

 H    1.917367324842    3.535655494291    0.000000000000
 H    3.456926324842    3.626634494291    0.902247000000
 H    3.456926324842    3.626634494291   -0.902247000000
 C    2.973115324842    3.230114494291    0.000000000000
 S    2.973115324842    1.397388494291    0.000000000000
 H    4.313698324842    1.240997494291    0.000000000000
 K   -3.695280284298   -2.452611505709    0.000000000000
