7

 H    1.956167708275    3.558056906111    0.000000000000
 H    3.495726708275    3.649035906111    0.902247000000
 H    3.495726708275    3.649035906111   -0.902247000000
 C    3.011915708275    3.252515906111    0.000000000000
 S    3.011915708275    1.419789906111    0.000000000000
 H    4.352498708275    1.263398906111    0.000000000000
 K   -3.743082441244   -2.480210093889    0.000000000000
