7

 H    2.033768475141    3.602859729750    0.000000000000
 H    3.573327475141    3.693838729750    0.902247000000
 H    3.573327475141    3.693838729750   -0.902247000000
 C    3.089516475141    3.297318729750    0.000000000000
 S    3.089516475141    1.464592729750    0.000000000000
 H    4.430099475141    1.308201729750    0.000000000000
 K   -3.838686755135   -2.535407270250    0.000000000000
