7

 H    2.150169625440    3.670063965209    0.000000000000
 H    3.689728625440    3.761042965209    0.902247000000
 H    3.689728625440    3.761042965209   -0.902247000000
 C    3.205917625440    3.364522965209    0.000000000000
 S    3.205917625440    1.531796965209    0.000000000000
 H    4.546500625440    1.375405965209    0.000000000000
 K   -3.982093225971   -2.618203034791    0.000000000000
