7

 H    2.382971926037    3.804472436127    0.000000000000
 H    3.922530926037    3.895451436127    0.902247000000
 H    3.922530926037    3.895451436127   -0.902247000000
 C    3.438719926037    3.498931436127    0.000000000000
 S    3.438719926037    1.666205436127    0.000000000000
 H    4.779302926037    1.509814436127    0.000000000000
 K   -4.268906167644   -2.783794563873    0.000000000000
