7

 H    2.460572692903    3.849275259766    0.000000000000
 H    4.000131692903    3.940254259766    0.902247000000
 H    4.000131692903    3.940254259766   -0.902247000000
 C    3.516320692903    3.543734259766    0.000000000000
 S    3.516320692903    1.711008259766    0.000000000000
 H    4.856903692903    1.554617259766    0.000000000000
 K   -4.364510481535   -2.838991740234    0.000000000000
