7

 H    2.615774226635    3.938880907045    0.000000000000
 H    4.155333226635    4.029859907045    0.902247000000
 H    4.155333226635    4.029859907045   -0.902247000000
 C    3.671522226635    3.633339907045    0.000000000000
 S    3.671522226635    1.800613907045    0.000000000000
 H    5.012105226635    1.644222907045    0.000000000000
 K   -4.555719109317   -2.949386092955    0.000000000000
