7

 H    2.654574610068    3.961282318865    0.000000000000
 H    4.194133610068    4.052261318865    0.902247000000
 H    4.194133610068    4.052261318865   -0.902247000000
 C    3.710322610068    3.655741318865    0.000000000000
 S    3.710322610068    1.823015318865    0.000000000000
 H    5.050905610068    1.666624318865    0.000000000000
 K   -4.603521266263   -2.976984681135    0.000000000000
