7

 H    2.732175376933    4.006085142504    0.000000000000
 H    4.271734376933    4.097064142504    0.902247000000
 H    4.271734376933    4.097064142504   -0.902247000000
 C    3.787923376933    3.700544142504    0.000000000000
 S    3.787923376933    1.867818142504    0.000000000000
 H    5.128506376933    1.711427142504    0.000000000000
 K   -4.699125580154   -3.032181857496    0.000000000000
