7

 H    2.770975760366    4.028486554324    0.000000000000
 H    4.310534760366    4.119465554324    0.902247000000
 H    4.310534760366    4.119465554324   -0.902247000000
 C    3.826723760366    3.722945554324    0.000000000000
 S    3.826723760366    1.890219554324    0.000000000000
 H    5.167306760366    1.733828554324    0.000000000000
 K   -4.746927737100   -3.059780445676    0.000000000000
