14

 N    1.291240208008    1.379957310454    0.470438911110
 C    0.205793265105    2.202716280282    0.473580782331
 H    0.397314104987    3.277773252781    0.471076183789
 C    1.209376487326   -0.039313151272    0.471456579994
 O    2.253119734644   -0.692555041333    0.468975738682
 N   -0.064461601355   -0.581452782865    0.482069814124
 C   -1.122147714168    0.219899248010    0.479576769296
 N   -2.354140830624   -0.383899781070    0.434170946087
 H   -2.363075298945   -1.383593667581    0.603741554652
 H   -3.172718574827    0.142528538330    0.709071070884
 C   -1.053565715734    1.661276087205    0.476093335630
 H   -1.942089431419    2.292593678449    0.466611381603
 H    2.235180330935    1.754605522896    0.467133014882
RB   -0.073512675066   -0.581719429205   -0.617892915683
