14

 N    1.291953305557    1.379978318442    0.557100532837
 C    0.206506362654    2.202737288270    0.560242404058
 H    0.398027202536    3.277794260769    0.557737805516
 C    1.210089584875   -0.039292143284    0.558118201721
 O    2.253832832193   -0.692534033345    0.555637360409
 N   -0.063748503806   -0.581431774877    0.568731435851
 C   -1.121434616619    0.219920255998    0.566238391023
 N   -2.353427733075   -0.383878773082    0.520832567814
 H   -2.362362201396   -1.383572659593    0.690403176379
 H   -3.172005477278    0.142549546318    0.795732692611
 C   -1.052852618185    1.661297095193    0.562754957357
 H   -1.941376333870    2.292614686437    0.553273003330
 H    2.235893428484    1.754626530884    0.553794636609
RB   -0.074445227283   -0.581746902369   -0.731224517557
