14

 N    1.292666403106    1.379999326431    0.643762154565
 C    0.207219460203    2.202758296259    0.646904025786
 H    0.398740300085    3.277815268758    0.644399427244
 C    1.210802682424   -0.039271135295    0.644779823449
 O    2.254545929742   -0.692513025356    0.642298982137
 N   -0.063035406257   -0.581410766888    0.655393057579
 C   -1.120721519070    0.219941263987    0.652900012751
 N   -2.352714635526   -0.383857765093    0.607494189542
 H   -2.361649103847   -1.383551651604    0.777064798107
 H   -3.171292379729    0.142570554307    0.882394314339
 C   -1.052139520636    1.661318103182    0.649416579085
 H   -1.940663236321    2.292635694426    0.639934625058
 H    2.236606526033    1.754647538873    0.640456258337
RB   -0.075377779500   -0.581774375533   -0.844556119431
