14

 N    1.293379500654    1.380020334419    0.730423776292
 C    0.207932557751    2.202779304247    0.733565647513
 H    0.399453397633    3.277836276746    0.731061048971
 C    1.211515779972   -0.039250127307    0.731441445176
 O    2.255259027290   -0.692492017368    0.728960603864
 N   -0.062322308709   -0.581389758900    0.742054679306
 C   -1.120008421522    0.219962271975    0.739561634478
 N   -2.352001537978   -0.383836757105    0.694155811269
 H   -2.360936006299   -1.383530643616    0.863726419834
 H   -3.170579282181    0.142591562295    0.969055936066
 C   -1.051426423088    1.661339111170    0.736078200812
 H   -1.939950138773    2.292656702414    0.726596246785
 H    2.237319623581    1.754668546861    0.727117880064
RB   -0.076310331718   -0.581801848698   -0.957887721305
