14

 N    1.322973048923    1.380892165936    4.326881077980
 C    0.237526106020    2.203651135764    4.330022949201
 H    0.429046945902    3.278708108263    4.327518350659
 C    1.241109328241   -0.038378295790    4.327898746864
 O    2.284852575559   -0.691620185851    4.325417905552
 N   -0.032728760440   -0.580517927383    4.338511980994
 C   -1.090414873253    0.220834103492    4.336018936166
 N   -2.322407989709   -0.382964925588    4.290613112957
 H   -2.331342458030   -1.382658812099    4.460183721522
 H   -3.140985733912    0.143463393812    4.565513237754
 C   -1.021832874819    1.662210942687    4.332535502500
 H   -1.910356590504    2.293528533931    4.323053548473
 H    2.266913171850    1.755540378378    4.323575181752
RB   -0.115011248728   -0.582941985016   -5.661149199069
