14

 N    1.294805695752    1.380062350396    0.903747019747
 C    0.209358752849    2.202821320224    0.906888890968
 H    0.400879592731    3.277878292723    0.904384292426
 C    1.212941975070   -0.039208111330    0.904764688631
 O    2.256685222388   -0.692450001391    0.902283847319
 N   -0.060896113611   -0.581347742923    0.915377922761
 C   -1.118582226424    0.220004287952    0.912884877933
 N   -2.350575342880   -0.383794741128    0.867479054724
 H   -2.359509811201   -1.383488627639    1.037049663289
 H   -3.169153087083    0.142633578272    1.142379179521
 C   -1.050000227990    1.661381127147    0.909401444267
 H   -1.938523943675    2.292698718391    0.899919490240
 H    2.238745818679    1.754710562838    0.900441123519
RB   -0.078175436152   -0.581856795026   -1.184550925052
