14

 N    1.295162244526    1.380072854390    0.947077830611
 C    0.209715301623    2.202831824218    0.950219701832
 H    0.401236141505    3.277888796717    0.947715103290
 C    1.213298523844   -0.039197607336    0.948095499495
 O    2.257041771162   -0.692439497397    0.945614658183
 N   -0.060539564837   -0.581337238929    0.958708733625
 C   -1.118225677650    0.220014791946    0.956215688797
 N   -2.350218794106   -0.383784237134    0.910809865588
 H   -2.359153262427   -1.383478123645    1.080380474153
 H   -3.168796538309    0.142644082266    1.185709990385
 C   -1.049643679216    1.661391631141    0.952732255131
 H   -1.938167394901    2.292709222385    0.943250301104
 H    2.239102367453    1.754721066832    0.943771934383
RB   -0.078641712260   -0.581870531608   -1.241216725989
