14

 N    1.295875342075    1.380093862378    1.033739452338
 C    0.210428399172    2.202852832206    1.036881323559
 H    0.401949239054    3.277909804705    1.034376725017
 C    1.214011621393   -0.039176599348    1.034757121222
 O    2.257754868711   -0.692418489409    1.032276279910
 N   -0.059826467288   -0.581316230941    1.045370355352
 C   -1.117512580101    0.220035799934    1.042877310524
 N   -2.349505696557   -0.383763229146    0.997471487315
 H   -2.358440164878   -1.383457115657    1.167042095880
 H   -3.168083440760    0.142665090254    1.272371612112
 C   -1.048930581667    1.661412639129    1.039393876858
 H   -1.937454297352    2.292730230373    1.029911922831
 H    2.239815465002    1.754742074820    1.030433556110
RB   -0.079574264477   -0.581898004773   -1.354548327863
