14

 N    1.297301537172    1.380135878355    1.207062695793
 C    0.211854594269    2.202894848183    1.210204567014
 H    0.403375434151    3.277951820682    1.207699968472
 C    1.215437816490   -0.039134583371    1.208080364677
 O    2.259181063808   -0.692376473432    1.205599523365
 N   -0.058400272191   -0.581274214964    1.218693598807
 C   -1.116086385004    0.220077815911    1.216200553979
 N   -2.348079501460   -0.383721213169    1.170794730770
 H   -2.357013969781   -1.383415099680    1.340365339335
 H   -3.166657245663    0.142707106231    1.445694855567
 C   -1.047504386570    1.661454655106    1.212717120313
 H   -1.936028102255    2.292772246350    1.203235166286
 H    2.241241660099    1.754784090797    1.203756799565
RB   -0.081439368912   -0.581952951101   -1.581211531611
