14

 N    1.299440829818    1.380198902320    1.467047560975
 C    0.213993886915    2.202957872148    1.470189432196
 H    0.405514726797    3.278014844647    1.467684833654
 C    1.217577109136   -0.039071559406    1.468065229859
 O    2.261320356454   -0.692313449467    1.465584388547
 N   -0.056260979545   -0.581211190999    1.478678463989
 C   -1.113947092358    0.220140839876    1.476185419161
 N   -2.345940208814   -0.383658189204    1.430779595952
 H   -2.354874677135   -1.383352075715    1.600350204517
 H   -3.164517953017    0.142770130196    1.705679720749
 C   -1.045365093924    1.661517679071    1.472701985495
 H   -1.933888809609    2.292835270315    1.463220031468
 H    2.243380952745    1.754847114762    1.463741664747
RB   -0.084237025563   -0.582035370594   -1.921206337232
