14

 N    1.300153927367    1.380219910308    1.553709182702
 C    0.214706984464    2.202978880136    1.556851053923
 H    0.406227824346    3.278035852635    1.554346455381
 C    1.218290206685   -0.039050551418    1.554726851586
 O    2.262033454003   -0.692292441479    1.552246010274
 N   -0.055547881996   -0.581190183011    1.565340085716
 C   -1.113233994809    0.220161847864    1.562847040888
 N   -2.345227111265   -0.383637181216    1.517441217679
 H   -2.354161579586   -1.383331067727    1.687011826244
 H   -3.163804855468    0.142791138184    1.792341342476
 C   -1.044651996375    1.661538687059    1.559363607222
 H   -1.933175712060    2.292856278303    1.549881653195
 H    2.244094050294    1.754868122750    1.550403286474
RB   -0.085169577780   -0.582062843758   -2.034537939106
