14

 N    1.301580122464    1.380261926285    1.727032426157
 C    0.216133179561    2.203020896113    1.730174297378
 H    0.407654019443    3.278077868612    1.727669698836
 C    1.219716401782   -0.039008535441    1.728050095041
 O    2.263459649100   -0.692250425502    1.725569253729
 N   -0.054121686899   -0.581148167034    1.738663329171
 C   -1.111807799712    0.220203863841    1.736170284343
 N   -2.343800916168   -0.383595165239    1.690764461134
 H   -2.352735384489   -1.383289051750    1.860335069699
 H   -3.162378660371    0.142833154161    1.965664585931
 C   -1.043225801278    1.661580703036    1.732686850677
 H   -1.931749516963    2.292898294280    1.723204896650
 H    2.245520245391    1.754910138727    1.723726529929
RB   -0.087034682214   -0.582117790087   -2.261201142854
