14

 N    1.301936671238    1.380272430279    1.770363237021
 C    0.216489728335    2.203031400107    1.773505108242
 H    0.408010568217    3.278088372606    1.771000509700
 C    1.220072950556   -0.038998031447    1.771380905905
 O    2.263816197874   -0.692239921508    1.768900064593
 N   -0.053765138125   -0.581137663040    1.781994140035
 C   -1.111451250938    0.220214367835    1.779501095207
 N   -2.343444367394   -0.383584661245    1.734095271998
 H   -2.352378835715   -1.383278547756    1.903665880563
 H   -3.162022111597    0.142843658155    2.008995396795
 C   -1.042869252504    1.661591207030    1.776017661541
 H   -1.931392968189    2.292908798274    1.766535707514
 H    2.245876794165    1.754920642721    1.767057340793
RB   -0.087500958323   -0.582131526669   -2.317866943791
