14

 N    1.303006317561    1.380303942262    1.900355669612
 C    0.217559374658    2.203062912090    1.903497540833
 H    0.409080214540    3.278119884589    1.900992942291
 C    1.221142596879   -0.038966519464    1.901373338496
 O    2.264885844197   -0.692208409525    1.898892497184
 N   -0.052695491802   -0.581106151057    1.911986572626
 C   -1.110381604615    0.220245879818    1.909493527798
 N   -2.342374721071   -0.383553149262    1.864087704589
 H   -2.351309189392   -1.383247035773    2.033658313154
 H   -3.160952465274    0.142875170138    2.138987829386
 C   -1.041799606181    1.661622719013    1.906010094132
 H   -1.930323321866    2.292940310257    1.896528140105
 H    2.246946440488    1.754952154704    1.897049773384
RB   -0.088899786649   -0.582172736416   -2.487864346602
