14

 N    1.303362866335    1.380314446256    1.943686480476
 C    0.217915923432    2.203073416084    1.946828351697
 H    0.409436763314    3.278130388583    1.944323753155
 C    1.221499145653   -0.038956015470    1.944704149360
 O    2.265242392971   -0.692197905531    1.942223308048
 N   -0.052338943028   -0.581095647063    1.955317383490
 C   -1.110025055841    0.220256383812    1.952824338662
 N   -2.342018172297   -0.383542645268    1.907418515453
 H   -2.350952640618   -1.383236531779    2.076989124018
 H   -3.160595916500    0.142885674132    2.182318640250
 C   -1.041443057407    1.661633223007    1.949340904996
 H   -1.929966773092    2.292950814251    1.939858950969
 H    2.247302989262    1.754962658698    1.940380584248
RB   -0.089366062757   -0.582186472998   -2.544530147539
