14

 N    1.305145610207    1.380366966227    2.160340534794
 C    0.219698667304    2.203125936055    2.163482406015
 H    0.411219507186    3.278182908554    2.160977807473
 C    1.223281889525   -0.038903495499    2.161358203678
 O    2.267025136843   -0.692145385560    2.158877362366
 N   -0.050556199156   -0.581043127092    2.171971437808
 C   -1.108242311969    0.220308903783    2.169478392980
 N   -2.340235428425   -0.383490125297    2.124072569771
 H   -2.349169896746   -1.383184011808    2.293643178336
 H   -3.158813172628    0.142938194103    2.398972694568
 C   -1.039660313535    1.661685742978    2.165994959314
 H   -1.928184029220    2.293003334222    2.156513005287
 H    2.249085733134    1.755015178669    2.157034638566
RB   -0.091697443300   -0.582255155909   -2.827859152223
