14

 N    1.305502158981    1.380377470221    2.203671345658
 C    0.220055216078    2.203136440049    2.206813216879
 H    0.411576055960    3.278193412548    2.204308618337
 C    1.223638438299   -0.038892991505    2.204689014542
 O    2.267381685617   -0.692134881566    2.202208173230
 N   -0.050199650382   -0.581032623098    2.215302248672
 C   -1.107885763195    0.220319407777    2.212809203844
 N   -2.339878879651   -0.383479621303    2.167403380635
 H   -2.348813347972   -1.383173507814    2.336973989200
 H   -3.158456623854    0.142948698097    2.442303505432
 C   -1.039303764761    1.661696246972    2.209325770178
 H   -1.927827480446    2.293013838216    2.199843816151
 H    2.249442281908    1.755025682663    2.200365449430
RB   -0.092163719409   -0.582268892491   -2.884524953160
