14

 N    1.307284902853    1.380429990192    2.420325399977
 C    0.221837959950    2.203188960020    2.423467271198
 H    0.413358799832    3.278245932519    2.420962672656
 C    1.225421182171   -0.038840471534    2.421343068861
 O    2.269164429489   -0.692082361595    2.418862227549
 N   -0.048416906510   -0.580980103127    2.431956302991
 C   -1.106103019323    0.220371927748    2.429463258163
 N   -2.338096135779   -0.383427101332    2.384057434954
 H   -2.347030604100   -1.383120987843    2.553628043519
 H   -3.156673879982    0.143001218068    2.658957559751
 C   -1.037521020889    1.661748766943    2.425979824497
 H   -1.926044736574    2.293066358187    2.416497870470
 H    2.251225025780    1.755078202634    2.417019503749
RB   -0.094495099951   -0.582337575401   -3.167853957845
