14

 N    1.307641451627    1.380440494186    2.463656210840
 C    0.222194508724    2.203199464014    2.466798082061
 H    0.413715348606    3.278256436513    2.464293483519
 C    1.225777730945   -0.038829967540    2.464673879724
 O    2.269520978263   -0.692071857601    2.462193038412
 N   -0.048060357736   -0.580969599133    2.475287113854
 C   -1.105746470549    0.220382431742    2.472794069026
 N   -2.337739587005   -0.383416597338    2.427388245817
 H   -2.346674055326   -1.383110483849    2.596958854382
 H   -3.156317331208    0.143011722062    2.702288370614
 C   -1.037164472115    1.661759270937    2.469310635360
 H   -1.925688187800    2.293076862181    2.459828681333
 H    2.251581574554    1.755088706628    2.460350314612
RB   -0.094961376060   -0.582351311984   -3.224519758782
