14

 N    1.309067646725    1.380482510163    2.636979454295
 C    0.223620703822    2.203241479991    2.640121325516
 H    0.415141543704    3.278298452490    2.637616726974
 C    1.227203926043   -0.038787951563    2.637997123179
 O    2.270947173361   -0.692029841624    2.635516281867
 N   -0.046634162638   -0.580927583156    2.648610357309
 C   -1.104320275451    0.220424447719    2.646117312481
 N   -2.336313391907   -0.383374581361    2.600711489272
 H   -2.345247860228   -1.383068467872    2.770282097837
 H   -3.154891136110    0.143053738039    2.875611614069
 C   -1.035738277017    1.661801286914    2.642633878815
 H   -1.924261992702    2.293118878158    2.633151924788
 H    2.253007769652    1.755130722605    2.633673558067
RB   -0.096826480494   -0.582406258312   -3.451182962529
