14

 N    1.309424195499    1.380493014157    2.680310265159
 C    0.223977252596    2.203251983985    2.683452136380
 H    0.415498092478    3.278308956484    2.680947537838
 C    1.227560474817   -0.038777447569    2.681327934043
 O    2.271303722135   -0.692019337630    2.678847092731
 N   -0.046277613864   -0.580917079162    2.691941168173
 C   -1.103963726677    0.220434951713    2.689448123345
 N   -2.335956843133   -0.383364077367    2.644042300136
 H   -2.344891311454   -1.383057963878    2.813612908701
 H   -3.154534587336    0.143064242033    2.918942424933
 C   -1.035381728243    1.661811790908    2.685964689679
 H   -1.923905443928    2.293129382152    2.676482735652
 H    2.253364318426    1.755141226599    2.677004368931
RB   -0.097292756603   -0.582419994894   -3.507848763466
