14

 N    1.311206939371    1.380545534128    2.896964319478
 C    0.225759996468    2.203304503956    2.900106190699
 H    0.417280836350    3.278361476455    2.897601592157
 C    1.229343218689   -0.038724927598    2.897981988362
 O    2.273086466007   -0.691966817659    2.895501147050
 N   -0.044494869992   -0.580864559191    2.908595222492
 C   -1.102180982805    0.220487471684    2.906102177664
 N   -2.334174099261   -0.383311557396    2.860696354455
 H   -2.343108567582   -1.383005443907    3.030266963020
 H   -3.152751843464    0.143116762004    3.135596479252
 C   -1.033598984371    1.661864310879    2.902618743998
 H   -1.922122700056    2.293181902123    2.893136789971
 H    2.255147062298    1.755193746570    2.893658423250
RB   -0.099624137145   -0.582488677805   -3.791177768151
