14

 N    1.311563488145    1.380556038122    2.940295130341
 C    0.226116545242    2.203315007950    2.943437001562
 H    0.417637385124    3.278371980449    2.940932403020
 C    1.229699767463   -0.038714423604    2.941312799225
 O    2.273443014781   -0.691956313665    2.938831957913
 N   -0.044138321218   -0.580854055197    2.951926033355
 C   -1.101824434031    0.220497975678    2.949432988527
 N   -2.333817550487   -0.383301053402    2.904027165318
 H   -2.342752018808   -1.382994939913    3.073597773883
 H   -3.152395294690    0.143127265998    3.178927290115
 C   -1.033242435597    1.661874814873    2.945949554861
 H   -1.921766151282    2.293192406117    2.936467600834
 H    2.255503611072    1.755204250564    2.936989234113
RB   -0.100090413254   -0.582502414387   -3.847843569088
