14

 N    1.311920036919    1.380566542116    2.983625941205
 C    0.226473094016    2.203325511944    2.986767812426
 H    0.417993933898    3.278382484443    2.984263213884
 C    1.230056316237   -0.038703919610    2.984643610089
 O    2.273799563555   -0.691945809671    2.982162768777
 N   -0.043781772444   -0.580843551203    2.995256844219
 C   -1.101467885257    0.220508479672    2.992763799391
 N   -2.333461001713   -0.383290549408    2.947357976182
 H   -2.342395470034   -1.382984435919    3.116928584747
 H   -3.152038745916    0.143137769992    3.222258100979
 C   -1.032885886823    1.661885318867    2.989280365725
 H   -1.921409602508    2.293202910111    2.979798411698
 H    2.255860159846    1.755214754558    2.980320044977
RB   -0.100556689363   -0.582516150969   -3.904509370025
