14

 N    1.314415878340    1.380640070075    3.286941617251
 C    0.228968935437    2.203399039903    3.290083488472
 H    0.420489775319    3.278456012402    3.287578889930
 C    1.232552157658   -0.038630391651    3.287959286135
 O    2.276295404976   -0.691872281712    3.285478444823
 N   -0.041285931023   -0.580770023244    3.298572520265
 C   -1.098972043836    0.220582007631    3.296079475437
 N   -2.330965160292   -0.383217021449    3.250673652228
 H   -2.339899628613   -1.382910907960    3.420244260793
 H   -3.149542904495    0.143211297951    3.525573777025
 C   -1.030390045402    1.661958846826    3.292596041771
 H   -1.918913761087    2.293276438070    3.283114087744
 H    2.258356001267    1.755288282517    3.283635721023
RB   -0.103820622122   -0.582612307044   -4.301169976583
