14

 N    1.319407561180    1.380787125994    3.893572969343
 C    0.233960618277    2.203546095822    3.896714840564
 H    0.425481458159    3.278603068321    3.894210242022
 C    1.237543840498   -0.038483335732    3.894590638227
 O    2.281287087816   -0.691725225793    3.892109796915
 N   -0.036294248183   -0.580622967325    3.905203872357
 C   -1.093980360996    0.220729063550    3.902710827529
 N   -2.325973477452   -0.383069965530    3.857305004320
 H   -2.334907945773   -1.382763852041    4.026875612885
 H   -3.144551221655    0.143358353870    4.132205129117
 C   -1.025398362562    1.662105902745    3.899227393863
 H   -1.913922078247    2.293423493989    3.889745439836
 H    2.263347684107    1.755435338436    3.890267073115
RB   -0.110348487642   -0.582804619194   -5.094491189700
