14

 N    1.320477207503    1.380818637976    4.023565401934
 C    0.235030264600    2.203577607804    4.026707273155
 H    0.426551104482    3.278634580303    4.024202674613
 C    1.238613486821   -0.038451823750    4.024583070818
 O    2.282356734139   -0.691693713811    4.022102229506
 N   -0.035224601860   -0.580591455343    4.035196304948
 C   -1.092910714673    0.220760575532    4.032703260120
 N   -2.324903831129   -0.383038453548    3.987297436911
 H   -2.333838299450   -1.382732340059    4.156868045476
 H   -3.143481575332    0.143389865852    4.262197561708
 C   -1.024328716239    1.662137414727    4.029219826454
 H   -1.912852431924    2.293455005971    4.019737872427
 H    2.264417330430    1.755466850418    4.020259505706
RB   -0.111747315968   -0.582845828941   -5.264488592511
