14

 N    1.321190305052    1.380839645965    4.110227023661
 C    0.235743362149    2.203598615793    4.113368894882
 H    0.427264202031    3.278655588292    4.110864296340
 C    1.239326584370   -0.038430815761    4.111244692545
 O    2.283069831688   -0.691672705822    4.108763851233
 N   -0.034511504311   -0.580570447354    4.121857926675
 C   -1.092197617124    0.220781583521    4.119364881847
 N   -2.324190733580   -0.383017445559    4.073959058638
 H   -2.333125201901   -1.382711332070    4.243529667203
 H   -3.142768477783    0.143410873841    4.348859183435
 C   -1.023615618690    1.662158422716    4.115881448181
 H   -1.912139334375    2.293476013960    4.106399494154
 H    2.265130427979    1.755487858407    4.106921127433
RB   -0.112679868185   -0.582873302105   -5.377820194385
