14

 N    1.321903402600    1.380860653953    4.196888645389
 C    0.236456459697    2.203619623781    4.200030516610
 H    0.427977299579    3.278676596280    4.197525918068
 C    1.240039681918   -0.038409807773    4.197906314273
 O    2.283782929236   -0.691651697834    4.195425472961
 N   -0.033798406763   -0.580549439366    4.208519548403
 C   -1.091484519576    0.220802591509    4.206026503575
 N   -2.323477636032   -0.382996437571    4.160620680366
 H   -2.332412104353   -1.382690324082    4.330191288931
 H   -3.142055380235    0.143431881829    4.435520805163
 C   -1.022902521142    1.662179430704    4.202543069909
 H   -1.911426236827    2.293497021948    4.193061115882
 H    2.265843525527    1.755508866395    4.193582749161
RB   -0.113612420402   -0.582900775269   -5.491151796259
