14

 N    1.322259951375    1.380871157947    4.240219456253
 C    0.236813008472    2.203630127775    4.243361327474
 H    0.428333848354    3.278687100274    4.240856728932
 C    1.240396230693   -0.038399303779    4.241237125137
 O    2.284139478011   -0.691641193840    4.238756283825
 N   -0.033441857988   -0.580538935372    4.251850359267
 C   -1.091127970801    0.220813095503    4.249357314439
 N   -2.323121087257   -0.382985933577    4.203951491230
 H   -2.332055555578   -1.382679820088    4.373522099795
 H   -3.141698831460    0.143442385823    4.478851616027
 C   -1.022545972367    1.662189934698    4.245873880773
 H   -1.911069688052    2.293507525942    4.236391926746
 H    2.266200074302    1.755519370389    4.236913560025
RB   -0.114078696511   -0.582914511852   -5.547817597196
