14

 N    1.322616500149    1.380881661941    4.283550267116
 C    0.237169557246    2.203640631769    4.286692138337
 H    0.428690397128    3.278697604268    4.284187539795
 C    1.240752779467   -0.038388799785    4.284567936000
 O    2.284496026785   -0.691630689846    4.282087094688
 N   -0.033085309214   -0.580528431378    4.295181170130
 C   -1.090771422027    0.220823599497    4.292688125302
 N   -2.322764538483   -0.382975429583    4.247282302093
 H   -2.331699006804   -1.382669316094    4.416852910658
 H   -3.141342282686    0.143452889817    4.522182426890
 C   -1.022189423593    1.662200438692    4.289204691636
 H   -1.910713139278    2.293518029936    4.279722737609
 H    2.266556623076    1.755529874383    4.280244370888
RB   -0.114544972619   -0.582928248434   -5.604483398132
