16

 N   -1.365284667485    1.793604654931    0.049274371360
 C    0.005330744924    1.993079332772    0.045642736984
 H    0.327115041262    3.036824263648    0.067061552677
 C   -1.964999936914    0.540489495378    0.024744380704
 O   -3.182773968446    0.373546789311    0.025740461478
 N   -1.039693921303   -0.496288114464   -0.002912156285
 H   -1.434267629166   -1.434802424313   -0.023421029683
 C    0.366036457092   -0.410249402146   -0.011360207076
 O    1.054357129520   -1.433866623948   -0.039468145629
 C    0.895805638157    0.958139466588    0.017246162058
 C    2.388095531763    1.141997792050    0.012415352232
 H    2.649643160843    2.210425668918    0.035069520379
 H    2.828239845353    0.683677572628   -0.886692899214
 H    2.839100738472    0.643511306744    0.884352189145
 H   -2.007590890814    2.577857693105    0.069169789650
NA    1.835371598115   -2.595330884073   -0.071361284353
