16

 N   -1.391101642312    1.831997661428    0.050328621176
 C   -0.020486229903    2.031472339269    0.046696986800
 H    0.301298066435    3.075217270145    0.068115802493
 C   -1.990816911741    0.578882501875    0.025798630520
 O   -3.208590943273    0.411939795808    0.026794711294
 N   -1.065510896130   -0.457895107967   -0.001857906469
 H   -1.460084603993   -1.396409417816   -0.022366779867
 C    0.340219482265   -0.371856395649   -0.010305957260
 O    1.028540154693   -1.395473617451   -0.038413895813
 C    0.869988663330    0.996532473085    0.018300411874
 C    2.362278556936    1.180390798547    0.013469602048
 H    2.623826186016    2.248818675415    0.036123770195
 H    2.802422870526    0.722070579125   -0.885638649398
 H    2.813283763645    0.681904313241    0.885406438961
 H   -2.033407865641    2.616250699602    0.070224039466
NA    1.976914866558   -2.805823076174   -0.077141278549
