16

 N   -1.399707300588    1.844795330260    0.050680037781
 C   -0.029091888179    2.044270008101    0.047048403405
 H    0.292692408159    3.088014938977    0.068467219098
 C   -1.999422570017    0.591680170707    0.026150047125
 O   -3.217196601549    0.424737464640    0.027146127899
 N   -1.074116554406   -0.445097439135   -0.001506489864
 H   -1.468690262269   -1.383611748984   -0.022015363262
 C    0.331613823989   -0.359058726817   -0.009954540655
 O    1.019934496417   -1.382675948619   -0.038062479208
 C    0.861383005054    1.009330141917    0.018651828479
 C    2.353672898660    1.193188467379    0.013821018653
 H    2.615220527740    2.261616344247    0.036475186800
 H    2.793817212250    0.734868247957   -0.885287232793
 H    2.804678105369    0.694701982073    0.885757855566
 H   -2.042013523917    2.629048368434    0.070575456071
NA    2.024095956039   -2.875987140208   -0.079067943281
