16

 N   -2.105371279203    2.894204174495    0.079496199411
 C   -0.734755866794    3.093678852336    0.075864565035
 H   -0.412971570456    4.137423783212    0.097283380728
 C   -2.705086548632    1.641089014942    0.054966208755
 O   -3.922860580164    1.474146308875    0.055962289529
 N   -1.779780533021    0.604311405100    0.027309671766
 H   -2.174354240884   -0.334202904749    0.006800798368
 C   -0.374050154626    0.690350117418    0.018861620975
 O    0.314270517802   -0.333267104384   -0.009246317578
 C    0.155719026439    2.058738986152    0.047467990109
 C    1.648008920045    2.242597311614    0.042637180283
 H    1.909556549125    3.311025188482    0.065291348430
 H    2.088153233635    1.784277092192   -0.856471071163
 H    2.099014126754    1.744110826308    0.914574017196
 H   -2.747677502532    3.678457212669    0.099391617701
NA    5.892945293480   -8.629440390991   -0.237054451320
