16

 N   -1.451341250243    1.921581343253    0.052788537413
 C   -0.080725837834    2.121056021094    0.049156903037
 H    0.241058458504    3.164800951970    0.070575718730
 C   -2.051056519672    0.668466183700    0.028258546757
 O   -3.268830551204    0.501523477633    0.029254627531
 N   -1.125750504061   -0.368311426142    0.000602009768
 H   -1.520324211924   -1.306825735991   -0.019906863630
 C    0.279979874334   -0.282272713824   -0.007846041023
 O    0.968300546762   -1.305889935626   -0.035953979576
 C    0.809749055399    1.086116154910    0.020760328111
 C    2.302038949005    1.269974480372    0.015929518285
 H    2.563586578085    2.338402357240    0.038583686432
 H    2.742183262595    0.811654260950   -0.883178733161
 H    2.753044155714    0.771487995066    0.887866355198
 H   -2.093647473572    2.705834381427    0.072683955703
NA    2.307182492925   -3.296971524412   -0.090627931674
