16

 N   -1.502975199898    1.998367356246    0.054897037044
 C   -0.132359787489    2.197842034087    0.051265402668
 H    0.189424508849    3.241586964963    0.072684218361
 C   -2.102690469327    0.745252196693    0.030367046388
 O   -3.320464500859    0.578309490626    0.031363127162
 N   -1.177384453716   -0.291525413149    0.002710509399
 H   -1.571958161579   -1.230039722998   -0.017798363999
 C    0.228345924679   -0.205486700831   -0.005737541392
 O    0.916666597107   -1.229103922633   -0.033845479945
 C    0.758115105744    1.162902167903    0.022868827742
 C    2.250404999350    1.346760493365    0.018038017916
 H    2.511952628430    2.415188370233    0.040692186063
 H    2.690549312940    0.888440273943   -0.881070233530
 H    2.701410206059    0.848274008059    0.889974854829
 H   -2.145281423227    2.782620394420    0.074792455334
NA    2.590269029811   -3.717955908616   -0.102187920067
