16

 N   -1.511580858174    2.011165025078    0.055248453649
 C   -0.140965445765    2.210639702919    0.051616819273
 H    0.180818850573    3.254384633795    0.073035634966
 C   -2.111296127603    0.758049865525    0.030718462993
 O   -3.329070159135    0.591107159458    0.031714543767
 N   -1.185990111992   -0.278727744317    0.003061926004
 H   -1.580563819855   -1.217242054166   -0.017446947394
 C    0.219740266403   -0.192689031999   -0.005386124787
 O    0.908060938831   -1.216306253801   -0.033494063340
 C    0.749509447468    1.175699836735    0.023220244347
 C    2.241799341074    1.359558162197    0.018389434521
 H    2.503346970154    2.427986039065    0.041043602668
 H    2.681943654664    0.901237942775   -0.880718816925
 H    2.692804547783    0.861071676891    0.890326271434
 H   -2.153887081503    2.795418063252    0.075143871939
NA    2.637450119292   -3.788119972649   -0.104114584800
