16

 N   -1.520186516449    2.023962693910    0.055599870255
 C   -0.149571104040    2.223437371751    0.051968235879
 H    0.172213192298    3.267182302627    0.073387051572
 C   -2.119901785878    0.770847534357    0.031069879599
 O   -3.337675817410    0.603904828290    0.032065960373
 N   -1.194595770267   -0.265930075485    0.003413342610
 H   -1.589169478130   -1.204444385334   -0.017095530788
 C    0.211134608128   -0.179891363167   -0.005034708181
 O    0.899455280556   -1.203508584969   -0.033142646734
 C    0.740903789193    1.188497505567    0.023571660953
 C    2.233193682799    1.372355831029    0.018740851127
 H    2.494741311879    2.440783707897    0.041395019274
 H    2.673337996389    0.914035611607   -0.880367400319
 H    2.684198889508    0.873869345723    0.890677688040
 H   -2.162492739778    2.808215732084    0.075495288545
NA    2.684631208773   -3.858284036683   -0.106041249532
