16

 N   -1.528792174725    2.036760362742    0.055951286860
 C   -0.158176762316    2.236235040583    0.052319652484
 H    0.163607534022    3.279979971459    0.073738468177
 C   -2.128507444154    0.783645203189    0.031421296204
 O   -3.346281475686    0.616702497122    0.032417376978
 N   -1.203201428543   -0.253132406653    0.003764759215
 H   -1.597775136406   -1.191646716502   -0.016744114183
 C    0.202528949852   -0.167093694335   -0.004683291576
 O    0.890849622280   -1.190710916137   -0.032791230129
 C    0.732298130917    1.201295174399    0.023923077558
 C    2.224588024523    1.385153499861    0.019092267732
 H    2.486135653603    2.453581376729    0.041746435879
 H    2.664732338113    0.926833280439   -0.880015983714
 H    2.675593231232    0.886667014555    0.891029104645
 H   -2.171098398054    2.821013400916    0.075846705150
NA    2.731812298254   -3.928448100717   -0.107967914264
