16

 N   -1.554609149553    2.075153369238    0.057005536676
 C   -0.183993737144    2.274628047079    0.053373902300
 H    0.137790559194    3.318372977955    0.074792717993
 C   -2.154324418982    0.822038209685    0.032475546020
 O   -3.372098450514    0.655095503618    0.033471626794
 N   -1.229018403371   -0.214739400157    0.004819009031
 H   -1.623592111234   -1.153253710006   -0.015689864367
 C    0.176711975024   -0.128700687839   -0.003629041760
 O    0.865032647452   -1.152317909641   -0.031736980313
 C    0.706481156089    1.239688180895    0.024977327374
 C    2.198771049695    1.423546506357    0.020146517548
 H    2.460318678775    2.491974383225    0.042800685695
 H    2.638915363285    0.965226286935   -0.878961733898
 H    2.649776256404    0.925060021051    0.892083354461
 H   -2.196915372882    2.859406407412    0.076900954966
NA    2.873355566697   -4.138940292819   -0.113747908460
