16

 N   -1.580426124380    2.113546375735    0.058059786491
 C   -0.209810711971    2.313021053576    0.054428152115
 H    0.111973584367    3.356765984452    0.075846967808
 C   -2.180141393809    0.860431216182    0.033529795835
 O   -3.397915425341    0.693488510115    0.034525876609
 N   -1.254835378198   -0.176346393660    0.005873258846
 H   -1.649409086061   -1.114860703509   -0.014635614552
 C    0.150895000197   -0.090307681342   -0.002574791945
 O    0.839215672625   -1.113924903144   -0.030682730498
 C    0.680664181262    1.278081187392    0.026031577189
 C    2.172954074868    1.461939512854    0.021200767363
 H    2.434501703948    2.530367389722    0.043854935510
 H    2.613098388458    1.003619293432   -0.877907484083
 H    2.623959281577    0.963453027548    0.893137604276
 H   -2.222732347709    2.897799413909    0.077955204781
NA    3.014898835140   -4.349432484921   -0.119527902657
