16

 N   -1.589031782656    2.126344044567    0.058411203097
 C   -0.218416370247    2.325818722408    0.054779568721
 H    0.103367926091    3.369563653284    0.076198384414
 C   -2.188747052085    0.873228885014    0.033881212441
 O   -3.406521083617    0.706286178947    0.034877293215
 N   -1.263441036474   -0.163548724828    0.006224675452
 H   -1.658014744337   -1.102063034677   -0.014284197946
 C    0.142289341921   -0.077510012510   -0.002223375339
 O    0.830610014349   -1.101127234312   -0.030331313892
 C    0.672058522986    1.290878856224    0.026382993795
 C    2.164348416592    1.474737181686    0.021552183969
 H    2.425896045672    2.543165058554    0.044206352116
 H    2.604492730182    1.016416962264   -0.877556067477
 H    2.615353623301    0.976250696380    0.893489020882
 H   -2.231338005985    2.910597082741    0.078306621387
NA    3.062079924620   -4.419596548955   -0.121454567389
