16

 N   -1.640665732311    2.203130057560    0.060519702728
 C   -0.270050319902    2.402604735401    0.056888068352
 H    0.051733976436    3.446349666277    0.078306884045
 C   -2.240381001740    0.950014898007    0.035989712072
 O   -3.458155033272    0.783072191940    0.036985792846
 N   -1.315074986129   -0.086762711835    0.008333175083
 H   -1.709648693992   -1.025277021684   -0.012175698315
 C    0.090655392266   -0.000723999517   -0.000114875708
 O    0.778976064694   -1.024341221319   -0.028222814261
 C    0.620424573331    1.367664869217    0.028491493426
 C    2.112714466937    1.551523194679    0.023660683600
 H    2.374262096017    2.619951071547    0.046314851747
 H    2.552858780527    1.093202975257   -0.875447567846
 H    2.563719673646    1.053036709373    0.895597520513
 H   -2.282971955640    2.987383095734    0.080415121018
NA    3.345166461506   -4.840580933159   -0.133014555782
