16

 N   -1.649271390586    2.215927726392    0.060871119333
 C   -0.278655978177    2.415402404233    0.057239484957
 H    0.043128318161    3.459147335109    0.078658300650
 C   -2.248986660015    0.962812566839    0.036341128677
 O   -3.466760691547    0.795869860772    0.037337209451
 N   -1.323680644404   -0.073965043003    0.008684591688
 H   -1.718254352267   -1.012479352852   -0.011824281710
 C    0.082049733991    0.012073669315    0.000236540897
 O    0.770370406419   -1.011543552487   -0.027871397656
 C    0.611818915056    1.380462538049    0.028842910031
 C    2.104108808662    1.564320863511    0.024012100205
 H    2.365656437742    2.632748740379    0.046666268352
 H    2.544253122252    1.106000644089   -0.875096151241
 H    2.555114015371    1.065834378205    0.895948937118
 H   -2.291577613915    3.000180764566    0.080766537623
NA    3.392347550987   -4.910744997192   -0.134941220514
