16

 N   -1.675088365414    2.254320732888    0.061925369149
 C   -0.304472953005    2.453795410729    0.058293734773
 H    0.017311343333    3.497540341605    0.079712550466
 C   -2.274803634843    1.001205573335    0.037395378493
 O   -3.492577666375    0.834262867268    0.038391459267
 N   -1.349497619232   -0.035572036507    0.009738841504
 H   -1.744071327095   -0.974086346356   -0.010770031894
 C    0.056232759163    0.050466675811    0.001290790713
 O    0.744553431591   -0.973150545991   -0.026817147840
 C    0.586001940228    1.418855544545    0.029897159847
 C    2.078291833834    1.602713870007    0.025066350021
 H    2.339839462914    2.671141746875    0.047720518168
 H    2.518436147424    1.144393650585   -0.874041901425
 H    2.529297040543    1.104227384701    0.897003186934
 H   -2.317394588743    3.038573771062    0.081820787439
NA    3.533890819430   -5.121237189294   -0.140721214711
