16

 N   -1.692299681965    2.279916070553    0.062628202360
 C   -0.321684269556    2.479390748394    0.058996567984
 H    0.000100026782    3.523135679270    0.080415383677
 C   -2.292014951394    1.026800911000    0.038098211704
 O   -3.509788982926    0.859858204933    0.039094292478
 N   -1.366708935783   -0.009976698842    0.010441674715
 H   -1.761282643646   -0.948491008691   -0.010067198683
 C    0.039021442612    0.076062013476    0.001993623924
 O    0.727342115040   -0.947555208326   -0.026114314629
 C    0.568790623677    1.444450882210    0.030599993058
 C    2.061080517283    1.628309207672    0.025769183232
 H    2.322628146363    2.696737084540    0.048423351379
 H    2.501224830873    1.169988988250   -0.873339068214
 H    2.512085723992    1.129822722366    0.897706020145
 H   -2.334605905294    3.064169108727    0.082523620650
NA    3.628252998392   -5.261565317362   -0.144574544175
