16

 N   -1.700905340241    2.292713739385    0.062979618965
 C   -0.330289927832    2.492188417226    0.059347984589
 H   -0.008505631494    3.535933348102    0.080766800282
 C   -2.300620609670    1.039598579832    0.038449628309
 O   -3.518394641202    0.872655873765    0.039445709083
 N   -1.375314594059    0.002820969990    0.010793091320
 H   -1.769888301922   -0.935693339859   -0.009715782078
 C    0.030415784336    0.088859682308    0.002345040529
 O    0.718736456764   -0.934757539494   -0.025762898024
 C    0.560184965401    1.457248551042    0.030951409663
 C    2.052474859007    1.641106876504    0.026120599837
 H    2.314022488087    2.709534753372    0.048774767984
 H    2.492619172597    1.182786657082   -0.872987651609
 H    2.503480065716    1.142620391198    0.898057436750
 H   -2.343211563570    3.076966777559    0.082875037255
NA    3.675434087873   -5.331729381396   -0.146501208907
