16

 N   -1.735327973344    2.343904414713    0.064385285386
 C   -0.364712560935    2.543379092554    0.060753651010
 H   -0.042928264597    3.587124023430    0.082172466703
 C   -2.335043242773    1.090789255160    0.039855294730
 O   -3.552817274305    0.923846549093    0.040851375504
 N   -1.409737227162    0.054011645318    0.012198757741
 H   -1.804310935025   -0.884502664531   -0.008310115657
 C   -0.004006848767    0.140050357636    0.003750706950
 O    0.684313823661   -0.883566864166   -0.024357231603
 C    0.525762332298    1.508439226370    0.032357076084
 C    2.018052225904    1.692297551832    0.027526266258
 H    2.279599854984    2.760725428700    0.050180434405
 H    2.458196539494    1.233977332410   -0.871581985188
 H    2.469057432613    1.193811066526    0.899463103171
 H   -2.377634196673    3.128157452887    0.084280703676
NA    3.864158445797   -5.612385637532   -0.154207867836
