16

 N   -1.743933631620    2.356702083545    0.064736701991
 C   -0.373318219211    2.556176761386    0.061105067615
 H   -0.051533922873    3.599921692262    0.082523883308
 C   -2.343648901049    1.103586923992    0.040206711335
 O   -3.561422932581    0.936644217925    0.041202792109
 N   -1.418342885438    0.066809314150    0.012550174346
 H   -1.812916593301   -0.871704995699   -0.007958699052
 C   -0.012612507043    0.152848026468    0.004102123555
 O    0.675708165385   -0.870769195334   -0.024005814998
 C    0.517156674022    1.521236895202    0.032708492689
 C    2.009446567628    1.705095220664    0.027877682863
 H    2.270994196708    2.773523097532    0.050531851010
 H    2.449590881218    1.246775001242   -0.871230568583
 H    2.460451774337    1.206608735358    0.899814519776
 H   -2.386239854949    3.140955121719    0.084632120281
NA    3.911339535278   -5.682549701566   -0.156134532568
