16

 N   -1.752539289896    2.369499752378    0.065088118596
 C   -0.381923877487    2.568974430219    0.061456484220
 H   -0.060139581149    3.612719361095    0.082875299913
 C   -2.352254559325    1.116384592825    0.040558127940
 O   -3.570028590857    0.949441886758    0.041554208714
 N   -1.426948543714    0.079606982983    0.012901590951
 H   -1.821522251577   -0.858907326866   -0.007607282447
 C   -0.021218165319    0.165645695301    0.004453540160
 O    0.667102507109   -0.857971526501   -0.023654398393
 C    0.508551015746    1.534034564035    0.033059909294
 C    2.000840909352    1.717892889497    0.028229099468
 H    2.262388538432    2.786320766365    0.050883267615
 H    2.440985222942    1.259572670075   -0.870879151978
 H    2.451846116061    1.219406404191    0.900165936381
 H   -2.394845513225    3.153752790552    0.084983536886
NA    3.958520624759   -5.752713765600   -0.158061197301
