16

 N   -1.769750606447    2.395095090042    0.065790951807
 C   -0.399135194038    2.594569767883    0.062159317431
 H   -0.077350897700    3.638314698759    0.083578133124
 C   -2.369465875876    1.141979930489    0.041260961151
 O   -3.587239907408    0.975037224422    0.042257041925
 N   -1.444159860265    0.105202320647    0.013604424162
 H   -1.838733568128   -0.833311989202   -0.006904449236
 C   -0.038429481870    0.191241032965    0.005156373371
 O    0.649891190558   -0.832376188837   -0.022951565182
 C    0.491339699195    1.559629901699    0.033762742505
 C    1.983629592801    1.743488227161    0.028931932679
 H    2.245177221881    2.811916104029    0.051586100826
 H    2.423773906391    1.285168007739   -0.870176318767
 H    2.434634799510    1.245001741855    0.900868769592
 H   -2.412056829776    3.179348128216    0.085686370097
NA    4.052882803721   -5.893041893668   -0.161914526765
