16

 N   -1.786961922999    2.420690427706    0.066493785017
 C   -0.416346510590    2.620165105547    0.062862150641
 H   -0.094562214252    3.663910036423    0.084280966334
 C   -2.386677192428    1.167575268153    0.041963794361
 O   -3.604451223960    1.000632562086    0.042959875135
 N   -1.461371176817    0.130797658311    0.014307257372
 H   -1.855944884680   -0.807716651538   -0.006201616026
 C   -0.055640798422    0.216836370629    0.005859206581
 O    0.632679874006   -0.806780851173   -0.022248731972
 C    0.474128382643    1.585225239363    0.034465575715
 C    1.966418276249    1.769083564825    0.029634765889
 H    2.227965905329    2.837511441693    0.052288934036
 H    2.406562589839    1.310763345403   -0.869473485557
 H    2.417423482958    1.270597079519    0.901571602802
 H   -2.429268146328    3.204943465880    0.086389203307
NA    4.147244982683   -6.033370021735   -0.165767856229
