16

 N   -1.804173239551    2.446285765370    0.067196618228
 C   -0.433557827142    2.645760443211    0.063564983852
 H   -0.111773530804    3.689505374087    0.084983799545
 C   -2.403888508980    1.193170605817    0.042666627572
 O   -3.621662540512    1.026227899750    0.043662708346
 N   -1.478582493369    0.156392995975    0.015010090583
 H   -1.873156201232   -0.782121313874   -0.005498782815
 C   -0.072852114974    0.242431708293    0.006562039792
 O    0.615468557454   -0.781185513509   -0.021545898761
 C    0.456917066091    1.610820577027    0.035168408926
 C    1.949206959697    1.794678902489    0.030337599100
 H    2.210754588777    2.863106779357    0.052991767247
 H    2.389351273287    1.336358683067   -0.868770652346
 H    2.400212166406    1.296192417183    0.902274436013
 H   -2.446479462880    3.230538803544    0.087092036518
NA    4.241607161645   -6.173698149803   -0.169621185694
