16

 N   -1.821384556102    2.471881103035    0.067899451438
 C   -0.450769143693    2.671355780876    0.064267817062
 H   -0.128984847355    3.715100711752    0.085686632755
 C   -2.421099825531    1.218765943482    0.043369460782
 O   -3.638873857063    1.051823237415    0.044365541556
 N   -1.495793809920    0.181988333640    0.015712923793
 H   -1.890367517783   -0.756525976209   -0.004795949605
 C   -0.090063431525    0.268027045958    0.007264873002
 O    0.598257240903   -0.755590175844   -0.020843065551
 C    0.439705749540    1.636415914692    0.035871242136
 C    1.931995643146    1.820274240154    0.031040432310
 H    2.193543272226    2.888702117022    0.053694600457
 H    2.372139956736    1.361954020732   -0.868067819136
 H    2.383000849855    1.321787754848    0.902977269223
 H   -2.463690779431    3.256134141209    0.087794869728
NA    4.335969340607   -6.314026277871   -0.173474515158
