16

 N   -1.838595872654    2.497476440699    0.068602284649
 C   -0.467980460245    2.696951118540    0.064970650273
 H   -0.146196163907    3.740696049416    0.086389465966
 C   -2.438311142083    1.244361281146    0.044072293993
 O   -3.656085173615    1.077418575079    0.045068374767
 N   -1.513005126472    0.207583671304    0.016415757004
 H   -1.907578834335   -0.730930638545   -0.004093116394
 C   -0.107274748077    0.293622383622    0.007967706213
 O    0.581045924351   -0.729994838180   -0.020140232340
 C    0.422494432988    1.662011252356    0.036574075347
 C    1.914784326594    1.845869577818    0.031743265521
 H    2.176331955674    2.914297454686    0.054397433668
 H    2.354928640184    1.387549358396   -0.867364985925
 H    2.365789533303    1.347383092512    0.903680102434
 H   -2.480902095983    3.281729478873    0.088497702939
NA    4.430331519569   -6.454354405939   -0.177327844622
