16

 N   -1.881624164033    2.561464784860    0.070359367675
 C   -0.511008751624    2.760939462701    0.066727733299
 H   -0.189224455286    3.804684393577    0.088146548992
 C   -2.481339433462    1.308349625307    0.045829377019
 O   -3.699113464994    1.141406919240    0.046825457793
 N   -1.556033417851    0.271572015465    0.018172840030
 H   -1.950607125714   -0.666942294384   -0.002336033368
 C   -0.150303039456    0.357610727783    0.009724789239
 O    0.538017632972   -0.666006494019   -0.018383149314
 C    0.379466141609    1.725999596517    0.038331158373
 C    1.871756035215    1.909857921979    0.033500348547
 H    2.133303664295    2.978285798847    0.056154516694
 H    2.311900348805    1.451537702557   -0.865607902899
 H    2.322761241924    1.411371436673    0.905437185460
 H   -2.523930387362    3.345717823034    0.090254785965
NA    4.666236966974   -6.805174726109   -0.186961168283
