16

 N   -1.907441138860    2.599857791356    0.071413617491
 C   -0.536825726451    2.799332469197    0.067781983115
 H   -0.215041430113    3.843077400073    0.089200798808
 C   -2.507156408289    1.346742631803    0.046883626835
 O   -3.724930439821    1.179799925736    0.047879707609
 N   -1.581850392678    0.309965021961    0.019227089846
 H   -1.976424100541   -0.628549287888   -0.001281783552
 C   -0.176120014283    0.396003734279    0.010779039055
 O    0.512200658145   -0.627613487523   -0.017328899498
 C    0.353649166782    1.764392603013    0.039385408189
 C    1.845939060388    1.948250928475    0.034554598363
 H    2.107486689468    3.016678805343    0.057208766510
 H    2.286083373978    1.489930709053   -0.864553653083
 H    2.296944267097    1.449764443169    0.906491435276
 H   -2.549747362189    3.384110829530    0.091309035781
NA    4.807780235417   -7.015666918211   -0.192741162480
