16

 N   -1.924652455412    2.625453129020    0.072116450701
 C   -0.554037043003    2.824927806861    0.068484816325
 H   -0.232252746665    3.868672737737    0.089903632018
 C   -2.524367724841    1.372337969467    0.047586460045
 O   -3.742141756373    1.205395263400    0.048582540819
 N   -1.599061709230    0.335560359625    0.019929923056
 H   -1.993635417093   -0.602953950224   -0.000578950342
 C   -0.193331330835    0.421599071943    0.011481872265
 O    0.494989341593   -0.602018149859   -0.016626066288
 C    0.336437850230    1.789987940677    0.040088241399
 C    1.828727743836    1.973846266139    0.035257431573
 H    2.090275372916    3.042274143007    0.057911599720
 H    2.268872057426    1.515526046717   -0.863850819873
 H    2.279732950545    1.475359780833    0.907194268486
 H   -2.566958678741    3.409706167194    0.092011868991
NA    4.902142414379   -7.155995046278   -0.196594491944
