16

 N   -1.933258113688    2.638250797852    0.072467867306
 C   -0.562642701279    2.837725475693    0.068836232930
 H   -0.240858404941    3.881470406569    0.090255048623
 C   -2.532973383117    1.385135638299    0.047937876650
 O   -3.750747414649    1.218192932232    0.048933957424
 N   -1.607667367506    0.348358028457    0.020281339661
 H   -2.002241075369   -0.590156281392   -0.000227533737
 C   -0.201936989111    0.434396740775    0.011833288870
 O    0.486383683317   -0.589220481027   -0.016274649683
 C    0.327832191954    1.802785609509    0.040439658004
 C    1.820122085560    1.986643934971    0.035608848178
 H    2.081669714640    3.055071811839    0.058263016325
 H    2.260266399150    1.528323715549   -0.863499403268
 H    2.271127292269    1.488157449665    0.907545685091
 H   -2.575564337017    3.422503836026    0.092363285596
NA    4.949323503860   -7.226159110312   -0.198521156676
