16

 N   -1.941863771963    2.651048466684    0.072819283912
 C   -0.571248359554    2.850523144525    0.069187649536
 H   -0.249464063216    3.894268075401    0.090606465229
 C   -2.541579041392    1.397933307131    0.048289293256
 O   -3.759353072924    1.230990601064    0.049285374030
 N   -1.616273025781    0.361155697289    0.020632756267
 H   -2.010846733644   -0.577358612560    0.000123882869
 C   -0.210542647386    0.447194409607    0.012184705476
 O    0.477778025042   -0.576422812195   -0.015923233077
 C    0.319226533679    1.815583278341    0.040791074610
 C    1.811516427285    1.999441603803    0.035960264784
 H    2.073064056365    3.067869480671    0.058614432931
 H    2.251660740875    1.541121384381   -0.863147986662
 H    2.262521633994    1.500955118497    0.907897101697
 H   -2.584169995292    3.435301504858    0.092714702202
NA    4.996504593341   -7.296323174346   -0.200447821408
