16

 N   -1.959075088515    2.676643804349    0.073522117122
 C   -0.588459676106    2.876118482190    0.069890482746
 H   -0.266675379768    3.919863413066    0.091309298439
 C   -2.558790357944    1.423528644796    0.048992126466
 O   -3.776564389476    1.256585938729    0.049988207240
 N   -1.633484342333    0.386751034954    0.021335589477
 H   -2.028058050196   -0.551763274895    0.000826716079
 C   -0.227753963938    0.472789747272    0.012887538686
 O    0.460566708490   -0.550827474530   -0.015220399867
 C    0.302015217127    1.841178616006    0.041493907820
 C    1.794305110733    2.025036941468    0.036663097994
 H    2.055852739813    3.093464818336    0.059317266141
 H    2.234449424323    1.566716722046   -0.862445153452
 H    2.245310317442    1.526550456162    0.908599934907
 H   -2.601381311844    3.460896842523    0.093417535412
NA    5.090866772303   -7.436651302414   -0.204301150873
