16

 N   -1.967680746791    2.689441473181    0.073873533727
 C   -0.597065334382    2.888916151022    0.070241899351
 H   -0.275281038044    3.932661081898    0.091660715044
 C   -2.567396016220    1.436326313628    0.049343543071
 O   -3.785170047752    1.269383607561    0.050339623845
 N   -1.642090000609    0.399548703786    0.021687006082
 H   -2.036663708472   -0.538965606063    0.001178132684
 C   -0.236359622214    0.485587416104    0.013238955291
 O    0.451961050214   -0.538029805698   -0.014868983262
 C    0.293409558851    1.853976284838    0.041845324425
 C    1.785699452457    2.037834610300    0.037014514599
 H    2.047247081537    3.106262487168    0.059668682746
 H    2.225843766047    1.579514390878   -0.862093736847
 H    2.236704659166    1.539348124994    0.908951351512
 H   -2.609986970120    3.473694511355    0.093768952017
NA    5.138047861784   -7.506815366448   -0.206227815605
