16

 N   -1.993497721618    2.727834479677    0.074927783543
 C   -0.622882309209    2.927309157518    0.071296149167
 H   -0.301098012871    3.971054088394    0.092714964860
 C   -2.593212991047    1.474719320124    0.050397792887
 O   -3.810987022579    1.307776614057    0.051393873661
 N   -1.667906975436    0.437941710282    0.022741255898
 H   -2.062480683299   -0.500572599567    0.002232382500
 C   -0.262176597041    0.523980422600    0.014293205107
 O    0.426144075387   -0.499636799202   -0.013814733446
 C    0.267592584024    1.892369291334    0.042899574241
 C    1.759882477630    2.076227616796    0.038068764415
 H    2.021430106710    3.144655493664    0.060722932562
 H    2.200026791220    1.617907397374   -0.861039487031
 H    2.210887684339    1.577741131490    0.910005601328
 H   -2.635803944947    3.512087517851    0.094823201833
NA    5.279591130227   -7.717307558550   -0.212007809801
