16

 N   -2.019314696446    2.766227486174    0.075982033359
 C   -0.648699284037    2.965702164015    0.072350398983
 H   -0.326914987699    4.009447094891    0.093769214676
 C   -2.619029965875    1.513112326621    0.051452042703
 O   -3.836803997407    1.346169620554    0.052448123477
 N   -1.693723950264    0.476334716779    0.023795505714
 H   -2.088297658127   -0.462179593070    0.003286632316
 C   -0.287993571869    0.562373429097    0.015347454923
 O    0.400327100559   -0.461243792705   -0.012760483630
 C    0.241775609196    1.930762297831    0.043953824057
 C    1.734065502802    2.114620623293    0.039123014231
 H    1.995613131882    3.183048500161    0.061777182378
 H    2.174209816392    1.656300403871   -0.859985237215
 H    2.185070709511    1.616134137987    0.911059851144
 H   -2.661620919775    3.550480524348    0.095877451649
NA    5.421134398670   -7.927799750652   -0.217787803998
