16

 N   -2.027920354721    2.779025155006    0.076333449964
 C   -0.657304942312    2.978499832847    0.072701815588
 H   -0.335520645974    4.022244763723    0.094120631281
 C   -2.627635624150    1.525909995453    0.051803459308
 O   -3.845409655682    1.358967289386    0.052799540082
 N   -1.702329608539    0.489132385611    0.024146922319
 H   -2.096903316402   -0.449381924238    0.003638048921
 C   -0.296599230144    0.575171097929    0.015698871528
 O    0.391721442284   -0.448446123873   -0.012409067025
 C    0.233169950921    1.943559966663    0.044305240662
 C    1.725459844527    2.127418292125    0.039474430836
 H    1.987007473607    3.195846168993    0.062128598983
 H    2.165604158117    1.669098072703   -0.859633820610
 H    2.176465051236    1.628931806819    0.911411267749
 H   -2.670226578050    3.563278193180    0.096228868254
NA    5.468315488151   -7.997963814686   -0.219714468730
