16

 N   -2.036526012997    2.791822823838    0.076684866569
 C   -0.665910600588    2.991297501679    0.073053232193
 H   -0.344126304250    4.035042432555    0.094472047886
 C   -2.636241282426    1.538707664285    0.052154875913
 O   -3.854015313958    1.371764958218    0.053150956687
 N   -1.710935266815    0.501930054443    0.024498338924
 H   -2.105508974678   -0.436584255406    0.003989465526
 C   -0.305204888420    0.587968766761    0.016050288133
 O    0.383115784008   -0.435648455041   -0.012057650420
 C    0.224564292645    1.956357635495    0.044656657267
 C    1.716854186251    2.140215960957    0.039825847441
 H    1.978401815331    3.208643837825    0.062480015588
 H    2.156998499841    1.681895741535   -0.859282404005
 H    2.167859392960    1.641729475651    0.911762684354
 H   -2.678832236326    3.576075862012    0.096580284859
NA    5.515496577632   -8.068127878720   -0.221641133462
