16

 N   -2.045131671273    2.804620492670    0.077036283175
 C   -0.674516258864    3.004095170511    0.073404648799
 H   -0.352731962526    4.047840101387    0.094823464492
 C   -2.644846940702    1.551505333117    0.052506292519
 O   -3.862620972234    1.384562627050    0.053502373293
 N   -1.719540925091    0.514727723275    0.024849755530
 H   -2.114114632954   -0.423786586574    0.004340882132
 C   -0.313810546696    0.600766435593    0.016401704739
 O    0.374510125732   -0.422850786209   -0.011706233814
 C    0.215958634369    1.969155304327    0.045008073873
 C    1.708248527975    2.153013629789    0.040177264047
 H    1.969796157055    3.221441506657    0.062831432194
 H    2.148392841565    1.694693410367   -0.858930987399
 H    2.159253734684    1.654527144483    0.912114100960
 H   -2.687437894602    3.588873530844    0.096931701465
NA    5.562677667113   -8.138291942753   -0.223567798195
