16

 N   -2.053737329549    2.817418161502    0.077387699780
 C   -0.683121917140    3.016892839343    0.073756065404
 H   -0.361337620802    4.060637770219    0.095174881097
 C   -2.653452598978    1.564303001949    0.052857709124
 O   -3.871226630510    1.397360295882    0.053853789898
 N   -1.728146583367    0.527525392107    0.025201172135
 H   -2.122720291230   -0.410988917742    0.004692298737
 C   -0.322416204972    0.613564104425    0.016753121344
 O    0.365904467456   -0.410053117377   -0.011354817209
 C    0.207352976093    1.981952973159    0.045359490478
 C    1.699642869699    2.165811298621    0.040528680652
 H    1.961190498779    3.234239175489    0.063182848799
 H    2.139787183289    1.707491079199   -0.858579570794
 H    2.150648076408    1.667324813315    0.912465517565
 H   -2.696043552878    3.601671199676    0.097283118070
NA    5.609858756594   -8.208456006787   -0.225494462927
