16

 N   -2.079554304376    2.855811167999    0.078441949596
 C   -0.708938891967    3.055285845840    0.074810315220
 H   -0.387154595629    4.099030776716    0.096229130913
 C   -2.679269573805    1.602696008446    0.053911958940
 O   -3.897043605337    1.435753302379    0.054908039714
 N   -1.753963558194    0.565918398604    0.026255421951
 H   -2.148537266057   -0.372595911245    0.005746548553
 C   -0.348233179799    0.651957110922    0.017807371160
 O    0.340087492629   -0.371660110880   -0.010300567393
 C    0.181536001266    2.020345979656    0.046413740294
 C    1.673825894872    2.204204305118    0.041582930468
 H    1.935373523952    3.272632181986    0.064237098615
 H    2.113970208462    1.745884085696   -0.857525320978
 H    2.124831101581    1.705717819812    0.913519767381
 H   -2.721860527705    3.640064206173    0.098337367886
NA    5.751402025037   -8.418948198889   -0.231274457123
