16

 N   -2.088159962652    2.868608836831    0.078793366201
 C   -0.717544550243    3.068083514672    0.075161731825
 H   -0.395760253905    4.111828445548    0.096580547518
 C   -2.687875232081    1.615493677278    0.054263375545
 O   -3.905649263613    1.448550971211    0.055259456319
 N   -1.762569216470    0.578716067436    0.026606838556
 H   -2.157142924333   -0.359798242413    0.006097965158
 C   -0.356838838075    0.664754779754    0.018158787765
 O    0.331481834353   -0.358862442048   -0.009949150788
 C    0.172930342990    2.033143648488    0.046765156899
 C    1.665220236596    2.217001973950    0.041934347073
 H    1.926767865676    3.285429850818    0.064588515220
 H    2.105364550186    1.758681754528   -0.857173904373
 H    2.116225443305    1.718515488644    0.913871183986
 H   -2.730466185981    3.652861875005    0.098688784491
NA    5.798583114518   -8.489112262923   -0.233201121855
