16

 N   -2.096765620928    2.881406505663    0.079144782806
 C   -0.726150208519    3.080881183504    0.075513148430
 H   -0.404365912181    4.124626114380    0.096931964123
 C   -2.696480890357    1.628291346110    0.054614792150
 O   -3.914254921889    1.461348640043    0.055610872924
 N   -1.771174874746    0.591513736268    0.026958255161
 H   -2.165748582609   -0.347000573581    0.006449381763
 C   -0.365444496351    0.677552448586    0.018510204370
 O    0.322876176077   -0.346064773216   -0.009597734183
 C    0.164324684714    2.045941317320    0.047116573504
 C    1.656614578320    2.229799642782    0.042285763678
 H    1.918162207400    3.298227519650    0.064939931825
 H    2.096758891910    1.771479423360   -0.856822487768
 H    2.107619785029    1.731313157476    0.914222600591
 H   -2.739071844257    3.665659543837    0.099040201096
NA    5.845764203999   -8.559276326957   -0.235127786588
