14

 N    0.057521850919    2.099241565155   -0.003332964241
 C   -1.027925091984    2.922000534983   -0.000191093020
 H   -0.836404252102    3.997057507482   -0.002695691562
 C   -0.024341869763    0.679971103429   -0.002315295357
 O    1.019401377555    0.026729213368   -0.004796136669
 N   -1.298179958444    0.137831471836    0.008297938773
 C   -2.355866071257    0.939183502711    0.005804893945
 N   -3.587859187713    0.335384473631   -0.039600929264
 H   -3.596793656034   -0.664309412880    0.129969679301
 H   -4.406436931916    0.861812793031    0.235299195533
 C   -2.287284072823    2.380560341906    0.002321460279
 H   -3.175807788508    3.011877933150   -0.007160493748
 H    1.001461973846    2.473889777597   -0.006638860469
CS    0.983812294897   -0.972620052457    0.001074305426
