14

 N    0.059460776131    2.153687011412   -0.003652791203
 C   -1.025986166772    2.976445981240   -0.000510919982
 H   -0.834465326890    4.051502953739   -0.003015518524
 C   -0.022402944551    0.734416549686   -0.002635122319
 O    1.021340302767    0.081174659625   -0.005115963631
 N   -1.296241033232    0.192276918093    0.007978111811
 C   -2.353927146045    0.993628948968    0.005485066983
 N   -3.585920262501    0.389829919888   -0.039920756226
 H   -3.594854730822   -0.609863966623    0.129649852339
 H   -4.404498006704    0.916258239288    0.234979368571
 C   -2.285345147611    2.435005788163    0.002001633317
 H   -3.173868863296    3.066323379407   -0.007480320710
 H    1.003400899058    2.528335223854   -0.006958687431
CS    0.982192311843   -1.018109532783    0.001341522674
