14

 N    0.061399701343    2.208132457668   -0.003972618165
 C   -1.024047241560    3.030891427496   -0.000830746944
 H   -0.832526401678    4.105948399995   -0.003335345486
 C   -0.020464019339    0.788861995942   -0.002954949281
 O    1.023279227979    0.135620105881   -0.005435790593
 N   -1.294302108020    0.246722364349    0.007658284849
 C   -2.351988220833    1.048074395224    0.005165240021
 N   -3.583981337289    0.444275366144   -0.040240583188
 H   -3.592915805610   -0.555418520367    0.129330025377
 H   -4.402559081492    0.970703685544    0.234659541609
 C   -2.283406222399    2.489451234419    0.001681806355
 H   -3.171929938084    3.120768825663   -0.007800147672
 H    1.005339824270    2.582780670110   -0.007278514393
CS    0.980572328790   -1.063599013109    0.001608739921
