14

 N    0.063338626555    2.262577903925   -0.004292445127
 C   -1.022108316348    3.085336873753   -0.001150573906
 H   -0.830587476466    4.160393846252   -0.003655172448
 C   -0.018525094127    0.843307442199   -0.003274776243
 O    1.025218153191    0.190065552138   -0.005755617555
 N   -1.292363182808    0.301167810606    0.007338457887
 C   -2.350049295621    1.102519841481    0.004845413059
 N   -3.582042412077    0.498720812401   -0.040560410150
 H   -3.590976880398   -0.500973074110    0.129010198415
 H   -4.400620156280    1.025149131801    0.234339714647
 C   -2.281467297187    2.543896680676    0.001361979393
 H   -3.169991012872    3.175214271920   -0.008119974634
 H    1.007278749482    2.637226116367   -0.007598341355
CS    0.978952345736   -1.109088493435    0.001875957169
