14

 N    0.067216476979    2.371468796438   -0.004932099051
 C   -1.018230465924    3.194227766266   -0.001790227830
 H   -0.826709626042    4.269284738765   -0.004294826372
 C   -0.014647243703    0.952198334712   -0.003914430167
 O    1.029096003615    0.298956444651   -0.006395271479
 N   -1.288485332384    0.410058703119    0.006698803963
 C   -2.346171445197    1.211410733994    0.004205759135
 N   -3.578164561653    0.607611704914   -0.041200064074
 H   -3.587099029974   -0.392082181597    0.128370544491
 H   -4.396742305856    1.134040024314    0.233700060723
 C   -2.277589446763    2.652787573189    0.000722325469
 H   -3.166113162448    3.284105164433   -0.008759628558
 H    1.011156599906    2.746117008880   -0.008237995279
CS    0.975712379629   -1.200067454086    0.002410391664
