14

 N    0.232025120004    6.999331728257   -0.032117390816
 C   -0.853421822899    7.822090698085   -0.028975519595
 H   -0.661900983017    8.897147670584   -0.031480118137
 C    0.150161399322    5.580061266531   -0.031099721932
 O    1.193904646640    4.926819376470   -0.033580563244
 N   -1.123676689359    5.037921634938   -0.020486487802
 C   -2.181362802172    5.839273665813   -0.022979532630
 N   -3.413355918628    5.235474636733   -0.068385355839
 H   -3.422290386949    4.235780750222    0.101185252726
 H   -4.231933662831    5.761902956133    0.206514768958
 C   -2.112780803738    7.280650505008   -0.026462966296
 H   -3.001304519423    7.911968096252   -0.035944920323
 H    1.175965242931    7.373979940699   -0.035423287044
CS    0.838013820064   -5.066673281781    0.025123857710
