14

 N    0.078850028251    2.698141473979   -0.006851060823
 C   -1.006596914652    3.520900443807   -0.003709189602
 H   -0.815076074770    4.595957416306   -0.006213788144
 C   -0.003013692431    1.278871012253   -0.005833391939
 O    1.040729554887    0.625629122192   -0.008314233251
 N   -1.276851781112    0.736731380660    0.004779842191
 C   -2.334537893925    1.538083411535    0.002286797363
 N   -3.566531010381    0.934284382455   -0.043119025846
 H   -3.575465478702   -0.065409504056    0.126451582719
 H   -4.385108754584    1.460712701855    0.231781098951
 C   -2.265955895491    2.979460250730   -0.001196636303
 H   -3.154479611176    3.610777841974   -0.010678590330
 H    1.022790151178    3.072789686421   -0.010156957051
CS    0.965992481306   -1.473004336041    0.004013695150
