14

 N    0.080788953464    2.752586920235   -0.007170887785
 C   -1.004657989439    3.575345890063   -0.004029016564
 H   -0.813137149557    4.650402862562   -0.006533615106
 C   -0.001074767218    1.333316458509   -0.006153218901
 O    1.042668480100    0.680074568448   -0.008634060213
 N   -1.274912855899    0.791176826916    0.004460015229
 C   -2.332598968712    1.592528857791    0.001966970401
 N   -3.564592085168    0.988729828711   -0.043438852808
 H   -3.573526553489   -0.010964057800    0.126131755757
 H   -4.383169829371    1.515158148111    0.231461271989
 C   -2.264016970278    3.033905696986   -0.001516463265
 H   -3.152540685963    3.665223288230   -0.010998417292
 H    1.024729076391    3.127235132677   -0.010476784013
CS    0.964372498253   -1.518493816367    0.004280912397
