14

 N    0.088544654312    2.970368705262   -0.008450195632
 C   -0.996902288591    3.793127675090   -0.005308324411
 H   -0.805381448709    4.868184647589   -0.007812922953
 C    0.006680933630    1.551098243536   -0.007432526748
 O    1.050424180948    0.897856353475   -0.009913368060
 N   -1.267157155051    1.008958611943    0.003180707382
 C   -2.324843267864    1.810310642818    0.000687662554
 N   -3.556836384320    1.206511613738   -0.044718160655
 H   -3.565770852641    0.206817727227    0.124852447910
 H   -4.375414128523    1.732939933138    0.230181964142
 C   -2.256261269430    3.251687482013   -0.002795771112
 H   -3.144784985115    3.883005073257   -0.012277725139
 H    1.032484777239    3.345016917704   -0.011756091860
CS    0.957892566038   -1.700451737670    0.005349781388
