14

 N    0.094361429948    3.133705044032   -0.009409676518
 C   -0.991085512955    3.956464013860   -0.006267805297
 H   -0.799564673073    5.031520986359   -0.008772403839
 C    0.012497709266    1.714434582306   -0.008392007634
 O    1.056240956584    1.061192692245   -0.010872848946
 N   -1.261340379415    1.172294950713    0.002221226496
 C   -2.319026492228    1.973646981588   -0.000271818332
 N   -3.551019608684    1.369847952508   -0.045677641541
 H   -3.559954077005    0.370154065997    0.123892967024
 H   -4.369597352887    1.896276271908    0.229222483256
 C   -2.250444493794    3.415023820783   -0.003755251998
 H   -3.138968209479    4.046341412027   -0.013237206025
 H    1.038301552875    3.508353256474   -0.012715572746
CS    0.953032616877   -1.836920178648    0.006151433131
