14

 N    0.100178205584    3.297041382802   -0.010369157404
 C   -0.985268737319    4.119800352630   -0.007227286183
 H   -0.793747897437    5.194857325129   -0.009731884725
 C    0.018314484902    1.877770921076   -0.009351488520
 O    1.062057732220    1.224529031015   -0.011832329832
 N   -1.255523603779    1.335631289483    0.001261745610
 C   -2.313209716592    2.136983320358   -0.001231299218
 N   -3.545202833048    1.533184291278   -0.046637122427
 H   -3.554137301369    0.533490404767    0.122933486138
 H   -4.363780577251    2.059612610678    0.228263002370
 C   -2.244627718158    3.578360159553   -0.004714732884
 H   -3.133151433843    4.209677750797   -0.014196686911
 H    1.044118328511    3.671689595244   -0.013675053632
CS    0.948172667716   -1.973388619625    0.006953084873
