14

 N    0.102117130796    3.351486829059   -0.010688984366
 C   -0.983329812107    4.174245798887   -0.007547113145
 H   -0.791808972225    5.249302771386   -0.010051711687
 C    0.020253410114    1.932216367333   -0.009671315482
 O    1.063996657432    1.278974477272   -0.012152156794
 N   -1.253584678567    1.390076735740    0.000941918648
 C   -2.311270791380    2.191428766615   -0.001551126180
 N   -3.543263907836    1.587629737535   -0.046956949389
 H   -3.552198376157    0.587935851024    0.122613659176
 H   -4.361841652039    2.114058056935    0.227943175408
 C   -2.242688792946    3.632805605810   -0.005034559846
 H   -3.131212508631    4.264123197054   -0.014516513873
 H    1.046057253723    3.726135041501   -0.013994880594
CS    0.946552684662   -2.018878099951    0.007220302121
