14

 N    0.109872831644    3.569268614086   -0.011968292214
 C   -0.975574111259    4.392027583914   -0.008826420993
 H   -0.784053271377    5.467084556413   -0.011331019535
 C    0.028009110962    2.149998152360   -0.010950623330
 O    1.071752358280    1.496756262299   -0.013431464642
 N   -1.245828977719    1.607858520767   -0.000337389200
 C   -2.303515090532    2.409210551642   -0.002830434028
 N   -3.535508206988    1.805411522562   -0.048236257237
 H   -3.544442675309    0.805717636051    0.121334351328
 H   -4.354085951191    2.331839841962    0.226663867560
 C   -2.234933092098    3.850587390837   -0.006313867694
 H   -3.123456807783    4.481904982081   -0.015795821721
 H    1.053812954571    3.943916826528   -0.015274188442
CS    0.940072752447   -2.200836021254    0.008289171111
