14

 N    0.111811756857    3.623714060342   -0.012288119176
 C   -0.973635186046    4.446473030170   -0.009146247955
 H   -0.782114346164    5.521530002669   -0.011650846497
 C    0.029948036175    2.204443598616   -0.011270450292
 O    1.073691283493    1.551201708555   -0.013751291604
 N   -1.243890052506    1.662303967023   -0.000657216162
 C   -2.301576165319    2.463655997898   -0.003150260990
 N   -3.533569281775    1.859856968818   -0.048556084199
 H   -3.542503750096    0.860163082307    0.121014524366
 H   -4.352147025978    2.386285288218    0.226344040598
 C   -2.232994166885    3.905032837093   -0.006633694656
 H   -3.121517882570    4.536350428337   -0.016115648683
 H    1.055751879784    3.998362272784   -0.015594015404
CS    0.938452769393   -2.246325501580    0.008556388359
