14

 N    0.113750682069    3.678159506599   -0.012607946138
 C   -0.971696260834    4.500918476427   -0.009466074917
 H   -0.780175420952    5.575975448926   -0.011970673459
 C    0.031886961387    2.258889044873   -0.011590277254
 O    1.075630208705    1.605647154812   -0.014071118566
 N   -1.241951127294    1.716749413280   -0.000977043124
 C   -2.299637240107    2.518101444155   -0.003470087952
 N   -3.531630356563    1.914302415075   -0.048875911161
 H   -3.540564824884    0.914608528564    0.120694697404
 H   -4.350208100766    2.440730734475    0.226024213636
 C   -2.231055241673    3.959478283350   -0.006953521618
 H   -3.119578957358    4.590795874594   -0.016435475645
 H    1.057690804996    4.052807719041   -0.015913842366
CS    0.936832786340   -2.291814981906    0.008823605607
