14

 N    0.115689607281    3.732604952856   -0.012927773100
 C   -0.969757335622    4.555363922684   -0.009785901879
 H   -0.778236495740    5.630420895183   -0.012290500421
 C    0.033825886599    2.313334491130   -0.011910104216
 O    1.077569133917    1.660092601069   -0.014390945528
 N   -1.240012202082    1.771194859537   -0.001296870086
 C   -2.297698314895    2.572546890412   -0.003789914914
 N   -3.529691431351    1.968747861332   -0.049195738123
 H   -3.538625899672    0.969053974821    0.120374870442
 H   -4.348269175554    2.495176180732    0.225704386674
 C   -2.229116316461    4.013923729607   -0.007273348580
 H   -3.117640032146    4.645241320851   -0.016755302607
 H    1.059629730208    4.107253165298   -0.016233669328
CS    0.935212803286   -2.337304462232    0.009090822854
