14

 N    0.129262083765    4.113723076653   -0.015166561833
 C   -0.956184859138    4.936482046481   -0.012024690612
 H   -0.764664019256    6.011539018980   -0.014529289154
 C    0.047398363083    2.694452614927   -0.014148892949
 O    1.091141610401    2.041210724866   -0.016629734261
 N   -1.226439725598    2.152312983334   -0.003535658819
 C   -2.284125838411    2.953665014209   -0.006028703647
 N   -3.516118954867    2.349865985129   -0.051434526856
 H   -3.525053423188    1.350172098618    0.118136081709
 H   -4.334696699070    2.876294304529    0.223465597941
 C   -2.215543839977    4.395041853404   -0.009512137313
 H   -3.104067555662    5.026359444648   -0.018994091340
 H    1.073202206692    4.488371289095   -0.018472458061
CS    0.923872921910   -2.655730824512    0.010961343587
