14

 N    0.131201008977    4.168168522909   -0.015486388795
 C   -0.954245933926    4.990927492737   -0.012344517574
 H   -0.762725094044    6.065984465236   -0.014849116116
 C    0.049337288295    2.748898061183   -0.014468719911
 O    1.093080535613    2.095656171122   -0.016949561223
 N   -1.224500800386    2.206758429590   -0.003855485781
 C   -2.282186913199    3.008110460465   -0.006348530609
 N   -3.514180029655    2.404311431385   -0.051754353818
 H   -3.523114497976    1.404617544874    0.117816254747
 H   -4.332757773858    2.930739750785    0.223145770979
 C   -2.213604914765    4.449487299660   -0.009831964275
 H   -3.102128630450    5.080804890904   -0.019313918302
 H    1.075141131904    4.542816735351   -0.018792285023
CS    0.922252938856   -2.701220304838    0.011228560835
