14

 N    0.137017784613    4.331504861679   -0.016445869681
 C   -0.948429158290    5.154263831507   -0.013303998460
 H   -0.756908318408    6.229320804006   -0.015808597002
 C    0.055154063931    2.912234399953   -0.015428200797
 O    1.098897311249    2.258992509892   -0.017909042109
 N   -1.218684024750    2.370094768360   -0.004814966667
 C   -2.276370137563    3.171446799235   -0.007308011495
 N   -3.508363254019    2.567647770155   -0.052713834704
 H   -3.517297722340    1.567953883644    0.116856773861
 H   -4.326940998222    3.094076089555    0.222186290093
 C   -2.207788139129    4.612823638430   -0.010791445161
 H   -3.096311854814    5.244141229674   -0.020273399188
 H    1.080957907540    4.706153074121   -0.019751765909
CS    0.917392989695   -2.837688745816    0.012030212578
