14

 N    0.140895635037    4.440395754193   -0.017085523605
 C   -0.944551307866    5.263154724021   -0.013943652384
 H   -0.753030467984    6.338211696520   -0.016448250926
 C    0.059031914355    3.021125292467   -0.016067854721
 O    1.102775161673    2.367883402406   -0.018548696033
 N   -1.214806174326    2.478985660874   -0.005454620591
 C   -2.272492287139    3.280337691749   -0.007947665419
 N   -3.504485403595    2.676538662669   -0.053353488628
 H   -3.513419871916    1.676844776158    0.116217119937
 H   -4.323063147798    3.202966982069    0.221546636169
 C   -2.203910288705    4.721714530944   -0.011431099085
 H   -3.092434004390    5.353032122188   -0.020913053112
 H    1.084835757964    4.815043966635   -0.020391419833
CS    0.914153023588   -2.928667706467    0.012564647073
