14

 N    0.146712410674    4.603732092963   -0.018045004491
 C   -0.938734532229    5.426491062791   -0.014903133270
 H   -0.747213692347    6.501548035290   -0.017407731812
 C    0.064848689992    3.184461631237   -0.017027335607
 O    1.108591937310    2.531219741176   -0.019508176919
 N   -1.208989398689    2.642321999644   -0.006414101477
 C   -2.266675511502    3.443674030519   -0.008907146305
 N   -3.498668627958    2.839875001439   -0.054312969514
 H   -3.507603096279    1.840181114928    0.115257639051
 H   -4.317246372161    3.366303320839    0.220587155283
 C   -2.198093513068    4.885050869714   -0.012390579971
 H   -3.086617228753    5.516368460958   -0.021872533998
 H    1.090652533601    4.978380305405   -0.021350900719
CS    0.909293074427   -3.065136147445    0.013366298816
