14

 N    0.160284887158    4.984850216760   -0.020283793224
 C   -0.925162055745    5.807609186588   -0.017141922003
 H   -0.733641215863    6.882666159087   -0.019646520545
 C    0.078421166476    3.565579755034   -0.019266124340
 O    1.122164413794    2.912337864973   -0.021746965652
 N   -1.195416922205    3.023440123441   -0.008652890210
 C   -2.253103035018    3.824792154316   -0.011145935038
 N   -3.485096151474    3.220993125236   -0.056551758247
 H   -3.494030619795    2.221299238725    0.113018850318
 H   -4.303673895677    3.747421444636    0.218348366550
 C   -2.184521036584    5.266168993511   -0.014629368704
 H   -3.073044752269    5.897486584755   -0.024111322731
 H    1.104225010085    5.359498429202   -0.023589689452
CS    0.897953193051   -3.383562509726    0.015236819549
