14

 N    0.162223812370    5.039295663016   -0.020603620186
 C   -0.923223130533    5.862054632844   -0.017461748965
 H   -0.731702290651    6.937111605343   -0.019966347507
 C    0.080360091688    3.620025201290   -0.019585951302
 O    1.124103339006    2.966783311229   -0.022066792614
 N   -1.193477996993    3.077885569697   -0.008972717172
 C   -2.251164109806    3.879237600572   -0.011465762000
 N   -3.483157226262    3.275438571492   -0.056871585209
 H   -3.492091694583    2.275744684981    0.112699023356
 H   -4.301734970465    3.801866890892    0.218028539588
 C   -2.182582111372    5.320614439767   -0.014949195666
 H   -3.071105827057    5.951932031011   -0.024431149693
 H    1.106163935297    5.413943875458   -0.023909516414
CS    0.896333209997   -3.429051990051    0.015504036797
