14

 N    0.166101662794    5.148186555530   -0.021243274110
 C   -0.919345280109    5.970945525358   -0.018101402889
 H   -0.727824440227    7.046002497857   -0.020606001431
 C    0.084237942112    3.728916093804   -0.020225605226
 O    1.127981189430    3.075674203743   -0.022706446538
 N   -1.189600146569    3.186776462211   -0.009612371096
 C   -2.247286259382    3.988128493086   -0.012105415924
 N   -3.479279375838    3.384329464006   -0.057511239133
 H   -3.488213844159    2.384635577495    0.112059369432
 H   -4.297857120041    3.910757783406    0.217388885664
 C   -2.178704260948    5.429505332281   -0.015588849590
 H   -3.067227976633    6.060822923525   -0.025070803617
 H    1.110041785721    5.522834767972   -0.024549170338
CS    0.893093243890   -3.520030950703    0.016038471292
