14

 N    0.168040588006    5.202632001786   -0.021563101072
 C   -0.917406354897    6.025390971614   -0.018421229851
 H   -0.725885515015    7.100447944113   -0.020925828393
 C    0.086176867324    3.783361540060   -0.020545432188
 O    1.129920114642    3.130119649999   -0.023026273500
 N   -1.187661221357    3.241221908467   -0.009932198058
 C   -2.245347334170    4.042573939342   -0.012425242886
 N   -3.477340450626    3.438774910262   -0.057831066095
 H   -3.486274918947    2.439081023751    0.111739542470
 H   -4.295918194829    3.965203229662    0.217069058702
 C   -2.176765335736    5.483950778537   -0.015908676552
 H   -3.065289051421    6.115268369781   -0.025390630579
 H    1.111980710933    5.577280214228   -0.024868997300
CS    0.891473260836   -3.565520431029    0.016305688539
