14

 N    0.169979513218    5.257077448043   -0.021882928034
 C   -0.915467429685    6.079836417871   -0.018741056813
 H   -0.723946589803    7.154893390370   -0.021245655355
 C    0.088115792536    3.837806986317   -0.020865259150
 O    1.131859039854    3.184565096256   -0.023346100462
 N   -1.185722296145    3.295667354724   -0.010252025020
 C   -2.243408408958    4.097019385599   -0.012745069848
 N   -3.475401525414    3.493220356519   -0.058150893057
 H   -3.484335993735    2.493526470008    0.111419715508
 H   -4.293979269617    4.019648675919    0.216749231740
 C   -2.174826410524    5.538396224794   -0.016228503514
 H   -3.063350126209    6.169713816038   -0.025710457541
 H    1.113919636145    5.631725660485   -0.025188824262
CS    0.889853277782   -3.611009911355    0.016572905787
