14

 N    0.171918438430    5.311522894300   -0.022202754996
 C   -0.913528504473    6.134281864128   -0.019060883775
 H   -0.722007664591    7.209338836627   -0.021565482317
 C    0.090054717748    3.892252432574   -0.021185086112
 O    1.133797965066    3.239010542513   -0.023665927424
 N   -1.183783370933    3.350112800981   -0.010571851982
 C   -2.241469483746    4.151464831856   -0.013064896810
 N   -3.473462600202    3.547665802776   -0.058470720019
 H   -3.482397068523    2.547971916265    0.111099888546
 H   -4.292040344405    4.074094122176    0.216429404778
 C   -2.172887485312    5.592841671051   -0.016548330476
 H   -3.061411200997    6.224159262295   -0.026030284503
 H    1.115858561357    5.686171106742   -0.025508651224
CS    0.888233294728   -3.656499391680    0.016840123035
