14

 N    0.177735214067    5.474859233070   -0.023162235882
 C   -0.907711728836    6.297618202898   -0.020020364661
 H   -0.716190888954    7.372675175397   -0.022524963203
 C    0.095871493385    4.055588771344   -0.022144566998
 O    1.139614740703    3.402346881283   -0.024625408310
 N   -1.177966595296    3.513449139751   -0.011531332868
 C   -2.235652708109    4.314801170626   -0.014024377696
 N   -3.467645824565    3.711002141546   -0.059430200905
 H   -3.476580292886    2.711308255035    0.110140407660
 H   -4.286223568768    4.237430460946    0.215469923892
 C   -2.167070709675    5.756178009821   -0.017507811362
 H   -3.055594425360    6.387495601065   -0.026989765389
 H    1.121675336994    5.849507445512   -0.026468132110
CS    0.883373345567   -3.792967832658    0.017641774777
