14

 N    0.179674139279    5.529304679327   -0.023482062844
 C   -0.905772803624    6.352063649155   -0.020340191623
 H   -0.714251963742    7.427120621654   -0.022844790165
 C    0.097810418597    4.110034217601   -0.022464393960
 O    1.141553665915    3.456792327540   -0.024945235272
 N   -1.176027670084    3.567894586008   -0.011851159830
 C   -2.233713782897    4.369246616883   -0.014344204658
 N   -3.465706899353    3.765447587803   -0.059750027867
 H   -3.474641367674    2.765753701292    0.109820580698
 H   -4.284284643556    4.291875907203    0.215150096930
 C   -2.165131784463    5.810623456078   -0.017827638324
 H   -3.053655500148    6.441941047322   -0.027309592351
 H    1.123614262206    5.903952891769   -0.026787959072
CS    0.881753362514   -3.838457312984    0.017908992025
