14

 N    0.183551989703    5.638195571840   -0.024121716768
 C   -0.901894953200    6.460954541668   -0.020979845547
 H   -0.710374113318    7.536011514167   -0.023484444089
 C    0.101688269021    4.218925110114   -0.023104047884
 O    1.145431516339    3.565683220053   -0.025584889196
 N   -1.172149819660    3.676785478521   -0.012490813754
 C   -2.229835932473    4.478137509396   -0.014983858582
 N   -3.461829048929    3.874338480316   -0.060389681791
 H   -3.470763517250    2.874644593805    0.109180926774
 H   -4.280406793132    4.400766799716    0.214510443006
 C   -2.161253934039    5.919514348591   -0.018467292248
 H   -3.049777649724    6.550831939835   -0.027949246275
 H    1.127492112630    6.012843784282   -0.027427612996
CS    0.878513396406   -3.929436273635    0.018443426520
