14

 N    0.197124466187    6.019313695637   -0.026360505501
 C   -0.888322476716    6.842072665465   -0.023218634280
 H   -0.696801636834    7.917129637964   -0.025723232822
 C    0.115260745505    4.600043233911   -0.025342836617
 O    1.159003992823    3.946801343850   -0.027823677929
 N   -1.158577343176    4.057903602318   -0.014729602487
 C   -2.216263455989    4.859255633193   -0.017222647315
 N   -3.448256572445    4.255456604113   -0.062628470524
 H   -3.457191040766    3.255762717602    0.106942138041
 H   -4.266834316648    4.781884923513    0.212271654273
 C   -2.147681457555    6.300632472388   -0.020706080981
 H   -3.036205173240    6.931950063632   -0.030188035008
 H    1.141064589114    6.393961908079   -0.029666401729
CS    0.867173515030   -4.247862635916    0.020313947253
