14

 N    0.199063391399    6.073759141894   -0.026680332463
 C   -0.886383551504    6.896518111722   -0.023538461242
 H   -0.694862711622    7.971575084221   -0.026043059784
 C    0.117199670717    4.654488680168   -0.025662663579
 O    1.160942918035    4.001246790107   -0.028143504891
 N   -1.156638417964    4.112349048575   -0.015049429449
 C   -2.214324530777    4.913701079450   -0.017542474277
 N   -3.446317647233    4.309902050370   -0.062948297486
 H   -3.455252115554    3.310208163859    0.106622311079
 H   -4.264895391436    4.836330369770    0.211951827311
 C   -2.145742532343    6.355077918645   -0.021025907943
 H   -3.034266248028    6.986395509889   -0.030507861970
 H    1.143003514326    6.448407354336   -0.029986228691
CS    0.865553531977   -4.293352116242    0.020581164501
