14

 N    0.201002316611    6.128204588150   -0.027000159425
 C   -0.884444626292    6.950963557978   -0.023858288204
 H   -0.692923786410    8.026020530477   -0.026362886746
 C    0.119138595929    4.708934126424   -0.025982490541
 O    1.162881843247    4.055692236363   -0.028463331853
 N   -1.154699492752    4.166794494831   -0.015369256411
 C   -2.212385605565    4.968146525706   -0.017862301239
 N   -3.444378722021    4.364347496626   -0.063268124448
 H   -3.453313190342    3.364653610115    0.106302484117
 H   -4.262956466224    4.890775816026    0.211632000349
 C   -2.143803607131    6.409523364901   -0.021345734905
 H   -3.032327322816    7.040840956145   -0.030827688932
 H    1.144942439538    6.502852800592   -0.030306055653
CS    0.863933548923   -4.338841596568    0.020848381748
