14

 N    0.204880167035    6.237095480664   -0.027639813349
 C   -0.880566775868    7.059854450492   -0.024497942128
 H   -0.689045935986    8.134911422991   -0.027002540670
 C    0.123016446353    4.817825018938   -0.026622144465
 O    1.166759693671    4.164583128877   -0.029102985777
 N   -1.150821642328    4.275685387345   -0.016008910335
 C   -2.208507755141    5.077037418220   -0.018501955163
 N   -3.440500871597    4.473238389140   -0.063907778372
 H   -3.449435339918    3.473544502629    0.105662830193
 H   -4.259078615800    4.999666708540    0.210992346425
 C   -2.139925756707    6.518414257415   -0.021985388829
 H   -3.028449472392    7.149731848659   -0.031467342856
 H    1.148820289962    6.611743693106   -0.030945709577
CS    0.860693582815   -4.429820557219    0.021382816244
