14

 N    0.210696942672    6.400431819434   -0.028599294235
 C   -0.874750000231    7.223190789262   -0.025457423014
 H   -0.683229160349    8.298247761761   -0.027962021556
 C    0.128833221990    4.981161357708   -0.027581625351
 O    1.172576469308    4.327919467647   -0.030062466663
 N   -1.145004866691    4.439021726115   -0.016968391221
 C   -2.202690979504    5.240373756990   -0.019461436049
 N   -3.434684095960    4.636574727910   -0.064867259258
 H   -3.443618564281    3.636880841399    0.104703349307
 H   -4.253261840163    5.163003047310    0.210032865539
 C   -2.134108981070    6.681750596185   -0.022944869715
 H   -3.022632696755    7.313068187429   -0.032426823742
 H    1.154637065599    6.775080031876   -0.031905190463
CS    0.855833633654   -4.566288998197    0.022184467986
