14

 N    0.216513718308    6.563768158204   -0.029558775121
 C   -0.868933224595    7.386527128032   -0.026416903900
 H   -0.677412384713    8.461584100531   -0.028921502442
 C    0.134649997626    5.144497696478   -0.028541106237
 O    1.178393244944    4.491255806417   -0.031021947549
 N   -1.139188091055    4.602358064885   -0.017927872107
 C   -2.196874203868    5.403710095760   -0.020420916935
 N   -3.428867320324    4.799911066680   -0.065826740144
 H   -3.437801788645    3.800217180169    0.103743868421
 H   -4.247445064527    5.326339386080    0.209073384653
 C   -2.128292205434    6.845086934955   -0.023904350601
 H   -3.016815921119    7.476404526199   -0.033386304628
 H    1.160453841235    6.938416370646   -0.032864671349
CS    0.850973684493   -4.702757439174    0.022986119729
