14

 N    0.218452643520    6.618213604460   -0.029878602083
 C   -0.866994299383    7.440972574288   -0.026736730862
 H   -0.675473459501    8.516029546787   -0.029241329404
 C    0.136588922838    5.198943142734   -0.028860933199
 O    1.180332170156    4.545701252673   -0.031341774511
 N   -1.137249165843    4.656803511141   -0.018247699069
 C   -2.194935278656    5.458155542016   -0.020740743897
 N   -3.426928395112    4.854356512936   -0.066146567106
 H   -3.435862863433    3.854662626425    0.103424041459
 H   -4.245506139315    5.380784832336    0.208753557691
 C   -2.126353280222    6.899532381211   -0.024224177563
 H   -3.014876995907    7.530849972455   -0.033706131590
 H    1.162392766447    6.992861816902   -0.033184498311
CS    0.849353701440   -4.748246919500    0.023253336977
