14

 N    0.222330493944    6.727104496974   -0.030518256006
 C   -0.863116448959    7.549863466802   -0.027376384785
 H   -0.671595609077    8.624920439301   -0.029880983327
 C    0.140466773262    5.307834035248   -0.029500587122
 O    1.184210020580    4.654592145187   -0.031981428434
 N   -1.133371315419    4.765694403655   -0.018887352992
 C   -2.191057428232    5.567046434530   -0.021380397820
 N   -3.423050544688    4.963247405450   -0.066786221029
 H   -3.431985013009    3.963553518939    0.102784387536
 H   -4.241628288891    5.489675724850    0.208113903768
 C   -2.122475429798    7.008423273725   -0.024863831486
 H   -3.010999145483    7.639740864969   -0.034345785513
 H    1.166270616871    7.101752709416   -0.033824152234
CS    0.846113735332   -4.839225880152    0.023787771472
