14

 N    0.224269419156    6.781549943231   -0.030838082968
 C   -0.861177523747    7.604308913059   -0.027696211747
 H   -0.669656683865    8.679365885558   -0.030200810289
 C    0.142405698474    5.362279481505   -0.029820414084
 O    1.186148945792    4.709037591444   -0.032301255396
 N   -1.131432390207    4.820139849912   -0.019207179954
 C   -2.189118503020    5.621491880787   -0.021700224782
 N   -3.421111619476    5.017692851707   -0.067106047991
 H   -3.430046087797    4.017998965196    0.102464560574
 H   -4.239689363679    5.544121171107    0.207794076806
 C   -2.120536504586    7.062868719982   -0.025183658448
 H   -3.009060220271    7.694186311226   -0.034665612475
 H    1.168209542083    7.156198155673   -0.034143979196
CS    0.844493752278   -4.884715360477    0.024054988720
