15

 C    2.363661030632    1.314752837376    2.693860150139
 H    2.379541030632    0.638962837376    3.560960150139
 H    2.092981030632    2.334102837376    3.002800150139
 H    3.378351030632    1.336092837376    2.265110150139
 C    1.393441030632    0.790562837376    1.629040150139
 O    0.735231030632    1.658572837376    0.965810150139
 O    1.341391030632   -0.475287162624    1.478090150139
 K   -0.391468969368   -0.206417162624   -0.397789849861
 C   -1.151571029882   -0.655240434562   -1.352149597634
 O   -0.956839213454    0.604776616756   -1.314896135248
 O   -0.669915578822   -1.518401601425   -0.545899232435
 C   -2.030672181511   -1.175410968872   -2.495376927844
 H   -2.368679542543   -2.201613684462   -2.295490651916
 H   -1.440038604144   -1.169493026076   -3.425379031948
 H   -2.891967930769   -0.507811676188   -2.643467708176
