15

 C    2.407618797834    1.340708916076    2.749052111586
 H    2.423498797834    0.664918916076    3.616152111586
 H    2.136938797834    2.360058916076    3.057992111586
 H    3.422308797834    1.362048916076    2.320302111586
 C    1.437398797834    0.816518916076    1.684232111586
 O    0.779188797834    1.684528916076    1.021002111586
 O    1.385348797834   -0.449331083924    1.533282111586
 K   -0.347511202166   -0.180461083924   -0.342597888414
 C   -1.224552041220   -0.698334090006   -1.443782212767
 O   -1.029820224793    0.561682961312   -1.406528750382
 O   -0.742896590160   -1.561495256869   -0.637531847569
 C   -2.103653192850   -1.218504624316   -2.587009542977
 H   -2.441660553881   -2.244707339907   -2.387123267050
 H   -1.513019615483   -1.212586681521   -3.517011647082
 H   -2.964948942107   -0.550905331633   -2.735100323310
