15

 C    4.275823903917    2.443842260822    5.094710473074
 H    4.291703903917    1.768052260822    5.961810473074
 H    4.005143903917    3.463192260822    5.403650473074
 H    5.290513903917    2.465182260822    4.665960473074
 C    3.305603903917    1.919652260822    4.029890473074
 O    2.647393903917    2.787662260822    3.366660473074
 O    3.253553903917    0.653802260822    3.878940473074
 K    1.520693903917    0.922672260822    2.003060473074
 C   -4.326245023114   -2.529814446393   -5.338168355948
 O   -4.131513206686   -1.269797395075   -5.300914893563
 O   -3.844589572054   -3.392975613256   -4.531917990750
 C   -5.205346174744   -3.049984980703   -6.481395686158
 H   -5.543353535775   -4.076187696293   -6.281509410231
 H   -4.614712597376   -3.044067037908   -7.411397790263
 H   -6.066641924001   -2.382385688019   -6.629486466491
