15

 C    2.517513215839    1.405599112826    2.887032015203
 H    2.533393215839    0.729809112826    3.754132015203
 H    2.246833215839    2.424949112826    3.195972015203
 H    3.532203215839    1.426939112826    2.458282015203
 C    1.547293215839    0.881409112826    1.822212015203
 O    0.889083215839    1.749419112826    1.158982015203
 O    1.495243215839   -0.384440887174    1.671262015203
 K   -0.237616784161   -0.115570887174   -0.204617984797
 C   -1.407004569567   -0.806068228617   -1.672863750602
 O   -1.212272753139    0.453948822701   -1.635610288216
 O   -0.925349118507   -1.669229395480   -0.866613385403
 C   -2.286105721197   -1.326238762927   -2.816091080811
 H   -2.624113082228   -2.352441478518   -2.616204804884
 H   -1.695472143829   -1.320320820132   -3.746093184916
 H   -3.147401470454   -0.658639470244   -2.964181861144
