15

 C    2.671365401046    1.496445388276    3.080203880267
 H    2.687245401046    0.820655388276    3.947303880267
 H    2.400685401046    2.515795388276    3.389143880267
 H    3.686055401046    1.517785388276    2.651453880267
 C    1.701145401046    0.972255388276    2.015383880267
 O    1.042935401046    1.840265388276    1.352153880267
 O    1.649095401046   -0.293594611724    1.864433880267
 K   -0.083764598954   -0.024724611724   -0.011446119733
 C   -1.662438109252   -0.956896022672   -1.993577903569
 O   -1.467706292825    0.303121028645   -1.956324441184
 O   -1.180782658192   -1.820057189536   -1.187327538371
 C   -2.541539260882   -1.477066556983   -3.136805233779
 H   -2.879546621913   -2.503269272573   -2.936918957852
 H   -1.950905683515   -1.471148614187   -4.066807337884
 H   -3.402835010139   -0.809467264299   -3.284896014112
