15

 C    2.693344284647    1.509423427626    3.107799860990
 H    2.709224284647    0.833633427626    3.974899860990
 H    2.422664284647    2.528773427626    3.416739860990
 H    3.708034284647    1.530763427626    2.679049860990
 C    1.723124284647    0.985233427626    2.042979860990
 O    1.064914284647    1.853243427626    1.379749860990
 O    1.671074284647   -0.280616572374    1.892029860990
 K   -0.061785715353   -0.011746572374    0.016149860990
 C   -1.698928614922   -0.978442850395   -2.039394211136
 O   -1.504196798494    0.281574200923   -2.002140748751
 O   -1.217273163862   -1.841604017258   -1.233143845938
 C   -2.578029766551   -1.498613384705   -3.182621541346
 H   -2.916037127583   -2.524816100295   -2.982735265419
 H   -1.987396189184   -1.492695441909   -4.112623645451
 H   -3.439325515809   -0.831014092021   -3.330712321679
