15

 C    2.781259819051    1.561335585026    3.218183783884
 H    2.797139819051    0.885545585026    4.085283783884
 H    2.510579819051    2.580685585026    3.527123783884
 H    3.795949819051    1.582675585026    2.789433783884
 C    1.811039819051    1.037145585026    2.153363783884
 O    1.152829819051    1.905155585026    1.490133783884
 O    1.758989819051   -0.228704414974    2.002413783884
 K    0.026129819051    0.040165585026    0.126533783884
 C   -1.844890637599   -1.064630161283   -2.222659441404
 O   -1.650158821171    0.195386890034   -2.185405979018
 O   -1.363235186539   -1.927791328147   -1.416409076205
 C   -2.723991789229   -1.584800695594   -3.365886771613
 H   -3.061999150260   -2.611003411184   -3.166000495686
 H   -2.133358211861   -1.578882752798   -4.295888875718
 H   -3.585287538486   -0.917201402910   -3.513977551946
