15

 C    2.803238702652    1.574313624375    3.245779764607
 H    2.819118702652    0.898523624375    4.112879764607
 H    2.532558702652    2.593663624375    3.554719764607
 H    3.817928702652    1.595653624375    2.817029764607
 C    1.833018702652    1.050123624375    2.180959764607
 O    1.174808702652    1.918133624375    1.517729764607
 O    1.780968702652   -0.215726375625    2.030009764607
 K    0.048108702652    0.053143624375    0.154129764607
 C   -1.881381143268   -1.086176989006   -2.268475748970
 O   -1.686649326841    0.173840062312   -2.231222286585
 O   -1.399725692208   -1.949338155869   -1.462225383772
 C   -2.760482294898   -1.606347523316   -3.411703079180
 H   -3.098489655929   -2.632550238906   -3.211816803253
 H   -2.169848717531   -1.600429580520   -4.341705183285
 H   -3.621778044155   -0.938748230632   -3.559793859513
