15

 C    2.847196469854    1.600269703075    3.300971726054
 H    2.863076469854    0.924479703075    4.168071726054
 H    2.576516469854    2.619619703075    3.609911726054
 H    3.861886469854    1.621609703075    2.872221726054
 C    1.876976469854    1.076079703075    2.236151726054
 O    1.218766469854    1.944089703075    1.572921726054
 O    1.824926469854   -0.189770296925    2.085201726054
 K    0.092066469854    0.079099703075    0.209321726054
 C   -1.954362154607   -1.129270644450   -2.360108364104
 O   -1.759630338179    0.130746406868   -2.322854901719
 O   -1.472706703547   -1.992431811313   -1.553857998905
 C   -2.833463306237   -1.649441178760   -3.503335694314
 H   -3.171470667268   -2.675643894351   -3.303449418387
 H   -2.242829728869   -1.643523235965   -4.433337798419
 H   -3.694759055494   -0.981841886077   -3.651426474647
