15

 C    2.869175353455    1.613247742425    3.328567706777
 H    2.885055353455    0.937457742425    4.195667706777
 H    2.598495353455    2.632597742425    3.637507706777
 H    3.883865353455    1.634587742425    2.899817706777
 C    1.898955353455    1.089057742425    2.263747706777
 O    1.240745353455    1.957067742425    1.600517706777
 O    1.846905353455   -0.176792257575    2.112797706777
 K    0.114045353455    0.092077742425    0.236917706777
 C   -1.990852660277   -1.150817472172   -2.405924671671
 O   -1.796120843849    0.109199579145   -2.368671209286
 O   -1.509197209216   -2.013978639036   -1.599674306472
 C   -2.869953811906   -1.670988006483   -3.549152001881
 H   -3.207961172937   -2.697190722073   -3.349265725953
 H   -2.279320234539   -1.665070063687   -4.479154105985
 H   -3.731249561163   -1.003388713799   -3.697242782213
