15

 C    2.913133120657    1.639203821125    3.383759668224
 H    2.929013120657    0.963413821125    4.250859668224
 H    2.642453120657    2.658553821125    3.692699668224
 H    3.927823120657    1.660543821125    2.955009668224
 C    1.942913120657    1.115013821125    2.318939668224
 O    1.284703120657    1.983023821125    1.655709668224
 O    1.890863120657   -0.150836178875    2.167989668224
 K    0.158003120657    0.118033821125    0.292109668224
 C   -2.063833671615   -1.193911127617   -2.497557286805
 O   -1.869101855187    0.066105923701   -2.460303824419
 O   -1.582178220555   -2.057072294480   -1.691306921606
 C   -2.942934823245   -1.714081661927   -3.640784617014
 H   -3.280942184276   -2.740284377517   -3.440898341087
 H   -2.352301245877   -1.708163719131   -4.570786721119
 H   -3.804230572502   -1.046482369243   -3.788875397347
