15

 C    3.001048655060    1.691115978525    3.494143591117
 H    3.016928655060    1.015325978525    4.361243591117
 H    2.730368655060    2.710465978525    3.803083591117
 H    4.015738655060    1.712455978525    3.065393591117
 C    2.030828655060    1.166925978525    2.429323591117
 O    1.372618655060    2.034935978525    1.766093591117
 O    1.978778655060   -0.098924021475    2.278373591117
 K    0.245918655060    0.169945978525    0.402493591117
 C   -2.209795694293   -1.280098438505   -2.680822517072
 O   -2.015063877865   -0.020081387188   -2.643569054687
 O   -1.728140243232   -2.143259605369   -1.874572151873
 C   -3.088896845922   -1.800268972816   -3.824049847282
 H   -3.426904206954   -2.826471688406   -3.624163571354
 H   -2.498263268555   -1.794351030020   -4.754051951386
 H   -3.950192595179   -1.132669680132   -3.972140627614
