15

 C    3.110943073065    1.756006175275    3.632123494734
 H    3.126823073065    1.080216175275    4.499223494734
 H    2.840263073065    2.775356175275    3.941063494734
 H    4.125633073065    1.777346175275    3.203373494734
 C    2.140723073065    1.231816175275    2.567303494734
 O    1.482513073065    2.099826175275    1.904073494734
 O    2.088673073065   -0.034033824725    2.416353494734
 K    0.355813073065    0.234836175275    0.540473494734
 C   -2.392248222639   -1.387832577116   -2.909904054906
 O   -2.197516406211   -0.127815525799   -2.872650592521
 O   -1.910592771579   -2.250993743980   -2.103653689707
 C   -3.271349374269   -1.908003111427   -4.053131385116
 H   -3.609356735300   -2.934205827017   -3.853245109189
 H   -2.680715796901   -1.902085168631   -4.983133489221
 H   -4.132645123526   -1.240403818743   -4.201222165449
