15

 C    3.132921956666    1.768984214625    3.659719475458
 H    3.148801956666    1.093194214625    4.526819475458
 H    2.862241956666    2.788334214625    3.968659475458
 H    4.147611956666    1.790324214625    3.230969475458
 C    2.162701956666    1.244794214625    2.594899475458
 O    1.504491956666    2.112804214625    1.931669475458
 O    2.110651956666   -0.021055785375    2.443949475458
 K    0.377791956666    0.247814214625    0.568069475458
 C   -2.428738728309   -1.409379404839   -2.955720362473
 O   -2.234006911881   -0.149362353521   -2.918466900088
 O   -1.947083277248   -2.272540571702   -2.149469997274
 C   -3.307839879938   -1.929549939149   -4.098947692683
 H   -3.645847240970   -2.955752654739   -3.899061416755
 H   -2.717206302571   -1.923631996353   -5.028949796787
 H   -4.169135629195   -1.261950646465   -4.247038473015
