15

 C    3.198858607469    1.807918332675    3.742507417628
 H    3.214738607469    1.132128332675    4.609607417628
 H    2.928178607469    2.827268332675    4.051447417628
 H    4.213548607469    1.829258332675    3.313757417628
 C    2.228638607469    1.283728332675    2.677687417628
 O    1.570428607469    2.151738332675    2.014457417628
 O    2.176588607469    0.017878332675    2.526737417628
 K    0.443728607469    0.286748332675    0.650857417628
 C   -2.538210245317   -1.474019888005   -3.093169285173
 O   -2.343478428889   -0.214002836688   -3.055915822788
 O   -2.056554794256   -2.337181054869   -2.286918919975
 C   -3.417311396946   -1.994190422316   -4.236396615383
 H   -3.755318757978   -3.020393137906   -4.036510339456
 H   -2.826677819579   -1.988272479520   -5.166398719488
 H   -4.278607146203   -1.326591129632   -4.384487395716
