15

 C    3.220837491070    1.820896372025    3.770103398351
 H    3.236717491070    1.145106372025    4.637203398351
 H    2.950157491070    2.840246372025    4.079043398351
 H    4.235527491070    1.842236372025    3.341353398351
 C    2.250617491070    1.296706372025    2.705283398351
 O    1.592407491070    2.164716372025    2.042053398351
 O    2.198567491070    0.030856372025    2.554333398351
 K    0.465707491070    0.299726372025    0.678453398351
 C   -2.574700750986   -1.495566715727   -3.138985592740
 O   -2.379968934558   -0.235549664410   -3.101732130355
 O   -2.093045299926   -2.358727882591   -2.332735227542
 C   -3.453801902616   -2.015737250038   -4.282212922950
 H   -3.791809263647   -3.041939965628   -4.082326647023
 H   -2.863168325248   -2.009819307242   -5.212215027055
 H   -4.315097651873   -1.348137957354   -4.430303703283
