15

 C    3.286774141873    1.859830490074    3.852891340522
 H    3.302654141873    1.184040490074    4.719991340522
 H    3.016094141873    2.879180490074    4.161831340522
 H    4.301464141873    1.881170490074    3.424141340522
 C    2.316554141873    1.335640490074    2.788071340522
 O    1.658344141873    2.203650490074    2.124841340522
 O    2.264504141873    0.069790490074    2.637121340522
 K    0.531644141873    0.338660490074    0.761241340522
 C   -2.684172267994   -1.560207198894   -3.276434515441
 O   -2.489440451566   -0.300190147576   -3.239181053055
 O   -2.202516816934   -2.423368365757   -2.470184150242
 C   -3.563273419624   -2.080377733204   -4.419661845651
 H   -3.901280780655   -3.106580448794   -4.219775569723
 H   -2.972639842256   -2.074459790409   -5.349663949755
 H   -4.424569168881   -1.412778440520   -4.567752625983
