15

 C    3.330731909075    1.885786568774    3.908083301968
 H    3.346611909075    1.209996568774    4.775183301968
 H    3.060051909075    2.905136568774    4.217023301968
 H    4.345421909075    1.907126568774    3.479333301968
 C    2.360511909075    1.361596568774    2.843263301968
 O    1.702301909075    2.229606568774    2.180033301968
 O    2.308461909075    0.095746568774    2.692313301968
 K    0.575601909075    0.364616568774    0.816433301968
 C   -2.757153279333   -1.603300854338   -3.368067130574
 O   -2.562421462905   -0.343283803021   -3.330813668189
 O   -2.275497828272   -2.466462021202   -2.561816765376
 C   -3.636254430962   -2.123471388649   -4.511294460784
 H   -3.974261791994   -3.149674104239   -4.311408184857
 H   -3.045620853595   -2.117553445853   -5.441296564889
 H   -4.497550180219   -1.455872095965   -4.659385241117
