15

 C    3.352710792676    1.898764608124    3.935679282692
 H    3.368590792676    1.222974608124    4.802779282692
 H    3.082030792676    2.918114608124    4.244619282692
 H    4.367400792676    1.920104608124    3.506929282692
 C    2.382490792676    1.374574608124    2.870859282692
 O    1.724280792676    2.242584608124    2.207629282692
 O    2.330440792676    0.108724608124    2.719909282692
 K    0.597580792676    0.377594608124    0.844029282692
 C   -2.793643785002   -1.624847682061   -3.413883438141
 O   -2.598911968574   -0.364830630743   -3.376629975756
 O   -2.311988333942   -2.488008848924   -2.607633072943
 C   -3.672744936632   -2.145018216371   -4.557110768351
 H   -4.010752297663   -3.171220931961   -4.357224492424
 H   -3.082111359264   -2.139100273575   -5.487112872456
 H   -4.534040685889   -1.477418923687   -4.705201548684
