15

 C    3.440626327080    1.950676765524    4.046063205585
 H    3.456506327080    1.274886765524    4.913163205585
 H    3.169946327080    2.970026765524    4.355003205585
 H    4.455316327080    1.972016765524    3.617313205585
 C    2.470406327080    1.426486765524    2.981243205585
 O    1.812196327080    2.294496765524    2.318013205585
 O    2.418356327080    0.160636765524    2.830293205585
 K    0.685496327080    0.429506765524    0.954413205585
 C   -2.939605807679   -1.711034992949   -3.597148668409
 O   -2.744873991252   -0.451017941632   -3.559895206023
 O   -2.457950356619   -2.574196159813   -2.790898303210
 C   -3.818706959309   -2.231205527260   -4.740375998618
 H   -4.156714320340   -3.257408242850   -4.540489722691
 H   -3.228073381941   -2.225287584464   -5.670378102723
 H   -4.680002708566   -1.563606234576   -4.888466778951
