15

 C    3.484584094282    1.976632844224    4.101255167032
 H    3.500464094282    1.300842844224    4.968355167032
 H    3.213904094282    2.995982844224    4.410195167032
 H    4.499274094282    1.997972844224    3.672505167032
 C    2.514364094282    1.452442844224    3.036435167032
 O    1.856154094282    2.320452844224    2.373205167032
 O    2.462314094282    0.186592844224    2.885485167032
 K    0.729454094282    0.455462844224    1.009605167032
 C   -3.012586819018   -1.754128648394   -3.688781283542
 O   -2.817855002590   -0.494111597076   -3.651527821157
 O   -2.530931367958   -2.617289815257   -2.882530918344
 C   -3.891687970648   -2.274299182704   -4.832008613752
 H   -4.229695331679   -3.300501898294   -4.632122337825
 H   -3.301054393280   -2.268381239908   -5.762010717857
 H   -4.752983719905   -1.606699890020   -4.980099394085
