15

 C    3.528541861484    2.002588922924    4.156447128479
 H    3.544421861484    1.326798922924    5.023547128479
 H    3.257861861484    3.021938922924    4.465387128479
 H    4.543231861484    2.023928922924    3.727697128479
 C    2.558321861484    1.478398922924    3.091627128479
 O    1.900111861484    2.346408922924    2.428397128479
 O    2.506271861484    0.212548922924    2.940677128479
 K    0.773411861484    0.481418922924    1.064797128479
 C   -3.085567830357   -1.797222303838   -3.780413898676
 O   -2.890836013929   -0.537205252521   -3.743160436291
 O   -2.603912379297   -2.660383470702   -2.974163533477
 C   -3.964668981986   -2.317392838149   -4.923641228886
 H   -4.302676343018   -3.343595553739   -4.723754952958
 H   -3.374035404619   -2.311474895353   -5.853643332990
 H   -4.825964731244   -1.649793545465   -5.071732009218
