15

 C    3.594478512287    2.041523040974    4.239235070649
 H    3.610358512287    1.365733040974    5.106335070649
 H    3.323798512287    3.060873040974    4.548175070649
 H    4.609168512287    2.062863040974    3.810485070649
 C    2.624258512287    1.517333040974    3.174415070649
 O    1.966048512287    2.385343040974    2.511185070649
 O    2.572208512287    0.251483040974    3.023465070649
 K    0.839348512287    0.520353040974    1.147585070649
 C   -3.195039347365   -1.861862787005   -3.917862821377
 O   -3.000307530937   -0.601845735687   -3.880609358991
 O   -2.713383896305   -2.725023953868   -3.111612456178
 C   -4.074140498994   -2.382033321315   -5.061090151586
 H   -4.412147860026   -3.408236036905   -4.861203875659
 H   -3.483506921627   -2.376115378519   -5.991092255691
 H   -4.935436248252   -1.714434028631   -5.209180931919
