15

 C    3.660415163090    2.080457159024    4.322023012819
 H    3.676295163090    1.404667159024    5.189123012819
 H    3.389735163090    3.099807159024    4.630963012819
 H    4.675105163090    2.101797159024    3.893273012819
 C    2.690195163090    1.556267159024    3.257203012819
 O    2.031985163090    2.424277159024    2.593973012819
 O    2.638145163090    0.290417159024    3.106253012819
 K    0.905285163090    0.559287159024    1.230373012819
 C   -3.304510864373   -1.926503270171   -4.055311744077
 O   -3.109779047945   -0.666486218854   -4.018058281692
 O   -2.822855413313   -2.789664437035   -3.249061378878
 C   -4.183612016002   -2.446673804482   -5.198539074287
 H   -4.521619377034   -3.472876520072   -4.998652798359
 H   -3.592978438635   -2.440755861686   -6.128541178391
 H   -5.044907765260   -1.779074511798   -5.346629854619
