15

 C    3.682394046691    2.093435198374    4.349618993543
 H    3.698274046691    1.417645198374    5.216718993543
 H    3.411714046691    3.112785198374    4.658558993543
 H    4.697084046691    2.114775198374    3.920868993543
 C    2.712174046691    1.569245198374    3.284798993543
 O    2.053964046691    2.437255198374    2.621568993543
 O    2.660124046691    0.303395198374    3.133848993543
 K    0.927264046691    0.572265198374    1.257968993543
 C   -3.341001370042   -1.948050097894   -4.101128051644
 O   -3.146269553614   -0.688033046576   -4.063874589258
 O   -2.859345918982   -2.811211264757   -3.294877686445
 C   -4.220102521672   -2.468220632204   -5.244355381854
 H   -4.558109882703   -3.494423347794   -5.044469105926
 H   -3.629468944304   -2.462302689408   -6.174357485958
 H   -5.081398270929   -1.800621339520   -5.392446162186
