15

 C    3.814267348296    2.171303434473    4.515194877883
 H    3.830147348296    1.495513434473    5.382294877883
 H    3.543587348296    3.190653434473    4.824134877883
 H    4.828957348296    2.192643434473    4.086444877883
 C    2.844047348296    1.647113434473    3.450374877883
 O    2.185837348296    2.515123434473    2.787144877883
 O    2.791997348296    0.381263434473    3.299424877883
 K    1.059137348296    0.650133434473    1.423544877883
 C   -3.559944404058   -2.077331064227   -4.376025897045
 O   -3.365212587630   -0.817314012909   -4.338772434660
 O   -3.078288952998   -2.940492231090   -3.569775531846
 C   -4.439045555688   -2.597501598537   -5.519253227255
 H   -4.777052916719   -3.623704314127   -5.319366951327
 H   -3.848411978320   -2.591583655741   -6.449255331359
 H   -5.300341304945   -1.929902305853   -5.667344007587
