15

 C    3.858225115498    2.197259513173    4.570386839330
 H    3.874105115498    1.521469513173    5.437486839330
 H    3.587545115498    3.216609513173    4.879326839330
 H    4.872915115498    2.218599513173    4.141636839330
 C    2.888005115498    1.673069513173    3.505566839330
 O    2.229795115498    2.541079513173    2.842336839330
 O    2.835955115498    0.407219513173    3.354616839330
 K    1.103095115498    0.676089513173    1.478736839330
 C   -3.632925415397   -2.120424719671   -4.467658512179
 O   -3.438193598969   -0.860407668354   -4.430405049793
 O   -3.151269964337   -2.983585886535   -3.661408146980
 C   -4.512026567026   -2.640595253982   -5.610885842388
 H   -4.850033928058   -3.666797969572   -5.410999566461
 H   -3.921392989659   -2.634677311186   -6.540887946493
 H   -5.373322316284   -1.972995961298   -5.758976622721
