15

 C    4.078013951508    2.327039906673    4.846346646564
 H    4.093893951508    1.651249906673    5.713446646564
 H    3.807333951508    3.346389906673    5.155286646564
 H    5.092703951508    2.348379906673    4.417596646564
 C    3.107793951508    1.802849906673    3.781526646564
 O    2.449583951508    2.670859906673    3.118296646564
 O    3.055743951508    0.536999906673    3.630576646564
 K    1.322883951508    0.805869906673    1.754696646564
 C   -3.997830472090   -2.335892996893   -4.925821587847
 O   -3.803098655662   -1.075875945576   -4.888568125462
 O   -3.516175021030   -3.199054163757   -4.119571222648
 C   -4.876931623720   -2.856063531204   -6.069048918057
 H   -5.214938984751   -3.882266246794   -5.869162642129
 H   -4.286298046352   -2.850145588408   -6.999051022161
 H   -5.738227372977   -2.188464238520   -6.217139698389
