15

 C    4.121971718710    2.352995985373    4.901538608010
 H    4.137851718710    1.677205985373    5.768638608010
 H    3.851291718710    3.372345985373    5.210478608010
 H    5.136661718710    2.374335985373    4.472788608010
 C    3.151751718710    1.828805985373    3.836718608010
 O    2.493541718710    2.696815985373    3.173488608010
 O    3.099701718710    0.562955985373    3.685768608010
 K    1.366841718710    0.831825985373    1.809888608010
 C   -4.070811483429   -2.378986652338   -5.017454202981
 O   -3.876079667001   -1.118969601020   -4.980200740595
 O   -3.589156032369   -3.242147819201   -4.211203837782
 C   -4.949912635058   -2.899157186648   -6.160681533190
 H   -5.287919996090   -3.925359902238   -5.960795257263
 H   -4.359279057691   -2.893239243852   -7.090683637295
 H   -5.811208384316   -2.231557893964   -6.308772313523
