15

 C    4.165929485912    2.378952064073    4.956730569457
 H    4.181809485912    1.703162064073    5.823830569457
 H    3.895249485912    3.398302064073    5.265670569457
 H    5.180619485912    2.400292064073    4.527980569457
 C    3.195709485912    1.854762064073    3.891910569457
 O    2.537499485912    2.722772064073    3.228680569457
 O    3.143659485912    0.588912064073    3.740960569457
 K    1.410799485912    0.857782064073    1.865080569457
 C   -4.143792494767   -2.422080307782   -5.109086818114
 O   -3.949060678340   -1.162063256464   -5.071833355729
 O   -3.662137043707   -3.285241474645   -4.302836452916
 C   -5.022893646397   -2.942250842092   -6.252314148324
 H   -5.360901007428   -3.968453557682   -6.052427872397
 H   -4.432260069030   -2.936332899297   -7.182316252429
 H   -5.884189395654   -2.274651549408   -6.400404928657
