15

 C    4.209887253114    2.404908142773    5.011922530904
 H    4.225767253114    1.729118142773    5.879022530904
 H    3.939207253114    3.424258142773    5.320862530904
 H    5.224577253114    2.426248142773    4.583172530904
 C    3.239667253114    1.880718142773    3.947102530904
 O    2.581457253114    2.748728142773    3.283872530904
 O    3.187617253114    0.614868142773    3.796152530904
 K    1.454757253114    0.883738142773    1.920272530904
 C   -4.216773506106   -2.465173963226   -5.200719433248
 O   -4.022041689678   -1.205156911909   -5.163465970863
 O   -3.735118055046   -3.328335130090   -4.394469068049
 C   -5.095874657736   -2.985344497537   -6.343946763458
 H   -5.433882018767   -4.011547213127   -6.144060487530
 H   -4.505241080368   -2.979426554741   -7.273948867562
 H   -5.957170406993   -2.317745204853   -6.492037543790
