13

 C    1.028087990532    1.732748415930    0.574489702403
 H    0.561467990532    2.724915415930    0.574489702403
 H    1.665236990532    1.628331415930    1.466995702403
 H    1.665236990532    1.628331415930   -0.318016297597
 C   -0.070087009468    0.681663415930    0.574489702403
 O   -1.276250009468    0.959717415930    0.574489702403
 N    0.360841990532   -0.618485584070    0.574489702403
 H    1.353018990532   -0.812386584070    0.574489702403
 C   -0.597493009468   -1.717013584070    0.574489702403
 H   -1.241558009468   -1.668534584070    1.465197702403
 H   -1.241558009468   -1.668534584070   -0.316218297597
 H   -0.044267009468   -2.665438584070    0.574489702403
NA    0.360841990532   -0.618485584070   -1.825510297597
