13

 C    1.028087990532    1.732748415930    1.388350114140
 H    0.561467990532    2.724915415930    1.388350114140
 H    1.665236990532    1.628331415930    2.280856114140
 H    1.665236990532    1.628331415930    0.495844114140
 C   -0.070087009468    0.681663415930    1.388350114140
 O   -1.276250009468    0.959717415930    1.388350114140
 N    0.360841990532   -0.618485584070    1.388350114140
 H    1.353018990532   -0.812386584070    1.388350114140
 C   -0.597493009468   -1.717013584070    1.388350114140
 H   -1.241558009468   -1.668534584070    2.279058114140
 H   -1.241558009468   -1.668534584070    0.497642114140
 H   -0.044267009468   -2.665438584070    1.388350114140
NA    0.360841990532   -0.618485584070   -4.411649885860
