13

 C    1.028087990532    1.732748415930    2.154336384011
 H    0.561467990532    2.724915415930    2.154336384011
 H    1.665236990532    1.628331415930    3.046842384011
 H    1.665236990532    1.628331415930    1.261830384011
 C   -0.070087009468    0.681663415930    2.154336384011
 O   -1.276250009468    0.959717415930    2.154336384011
 N    0.360841990532   -0.618485584070    2.154336384011
 H    1.353018990532   -0.812386584070    2.154336384011
 C   -0.597493009468   -1.717013584070    2.154336384011
 H   -1.241558009468   -1.668534584070    3.045044384011
 H   -1.241558009468   -1.668534584070    1.263628384011
 H   -0.044267009468   -2.665438584070    2.154336384011
NA    0.360841990532   -0.618485584070   -6.845663615989
