13

 C    1.028087990532    1.732748415930    2.226147596811
 H    0.561467990532    2.724915415930    2.226147596811
 H    1.665236990532    1.628331415930    3.118653596811
 H    1.665236990532    1.628331415930    1.333641596811
 C   -0.070087009468    0.681663415930    2.226147596811
 O   -1.276250009468    0.959717415930    2.226147596811
 N    0.360841990532   -0.618485584070    2.226147596811
 H    1.353018990532   -0.812386584070    2.226147596811
 C   -0.597493009468   -1.717013584070    2.226147596811
 H   -1.241558009468   -1.668534584070    3.116855596811
 H   -1.241558009468   -1.668534584070    1.335439596811
 H   -0.044267009468   -2.665438584070    2.226147596811
NA    0.360841990532   -0.618485584070   -7.073852403189
