14

 N    1.268936536085    1.201779266022    0.307148120160
 C    0.183489593182    2.024538235850    0.310289991381
 H    0.375010433064    3.099595208349    0.307785392839
 C    1.187072815403   -0.217491195704    0.308165789044
 O    2.230816062721   -0.870733085765    0.305684947732
 N   -0.086765273278   -0.759630827297    0.318779023174
 C   -1.144451386091    0.041721203578    0.316285978346
 N   -2.376444502547   -0.562077825502    0.270880155137
 H   -2.385378970868   -1.561771712013    0.440450763702
 H   -3.195022246750   -0.035649506102    0.545780279934
 C   -1.075869387657    1.483098042773    0.312802544680
 H   -1.964393103342    2.114415634017    0.303320590653
 H    2.212876659012    1.576427478464    0.303842223932
 K   -0.096639171873   -0.759921714213   -0.881180318434
