14

 N    1.270432614255    1.201823340767    0.488964143345
 C    0.184985671352    2.024582310595    0.492106014566
 H    0.376506511234    3.099639283094    0.489601416024
 C    1.188568893573   -0.217447120959    0.489981812229
 O    2.232312140891   -0.870689011020    0.487500970917
 N   -0.085269195108   -0.759586752552    0.500595046359
 C   -1.142955307921    0.041765278323    0.498102001531
 N   -2.374948424377   -0.562033750757    0.452696178322
 H   -2.383882892698   -1.561727637268    0.622266786887
 H   -3.193526168580   -0.035605431357    0.727596303119
 C   -1.074373309487    1.483142117518    0.494618567865
 H   -1.962897025172    2.114459708762    0.485136613838
 H    2.214372737182    1.576471553209    0.485658247117
 K   -0.100902867883   -0.760047323502   -1.399340577853
