14

 N    1.287744375936    1.202333348533    2.592835268776
 C    0.202297433033    2.025092318361    2.595977139997
 H    0.393818272915    3.100149290860    2.593472541455
 C    1.205880655254   -0.216937113193    2.593852937660
 O    2.249623902572   -0.870179003254    2.591372096348
 N   -0.067957433427   -0.759076744786    2.604466171790
 C   -1.125643546240    0.042275286089    2.601973126962
 N   -2.357636662696   -0.561523742991    2.556567303753
 H   -2.366571131017   -1.561217629502    2.726137912318
 H   -3.176214406899   -0.035095423591    2.831467428550
 C   -1.057061547806    1.483652125284    2.598489693296
 H   -1.945585263491    2.114969716528    2.589007739269
 H    2.231684498863    1.576981560975    2.589529372548
 K   -0.150239921715   -0.761500802419   -7.395195008273
