14

 N    1.271287516066    1.201848526336    0.592859013737
 C    0.185840573163    2.024607496164    0.596000884958
 H    0.377361413045    3.099664468663    0.593496286416
 C    1.189423795384   -0.217421935390    0.593876682621
 O    2.233167042702   -0.870663825451    0.591395841309
 N   -0.084414293297   -0.759561566983    0.604489916751
 C   -1.142100406110    0.041790463892    0.601996871923
 N   -2.374093522566   -0.562008565188    0.556591048714
 H   -2.383027990887   -1.561702451699    0.726161657279
 H   -3.192671266769   -0.035580245788    0.831491173511
 C   -1.073518407676    1.483167303087    0.598513438257
 H   -1.962042123361    2.114484894331    0.589031484230
 H    2.215227638993    1.576496738778    0.589553117509
 K   -0.103339265603   -0.760119100239   -1.695432154664
