14

 N    1.271501241519    1.201854822728    0.618832731335
 C    0.186054298616    2.024613792556    0.621974602556
 H    0.377575138498    3.099670765055    0.619470004014
 C    1.189637520837   -0.217415638998    0.619850400219
 O    2.233380768155   -0.870657529059    0.617369558907
 N   -0.084200567844   -0.759555270591    0.630463634349
 C   -1.141886680657    0.041796760284    0.627970589521
 N   -2.373879797113   -0.562002268796    0.582564766312
 H   -2.382814265434   -1.561696155307    0.752135374877
 H   -3.192457541316   -0.035573949396    0.857464891109
 C   -1.073304682223    1.483173599479    0.624487155855
 H   -1.961828397908    2.114491190723    0.615005201828
 H    2.215441364446    1.576503035170    0.615526835107
 K   -0.103948365033   -0.760137044423   -1.769455048866
