14

 N    1.271714966972    1.201861119120    0.644806448933
 C    0.186268024069    2.024620088948    0.647948320154
 H    0.377788863951    3.099677061447    0.645443721612
 C    1.189851246290   -0.217409342606    0.645824117817
 O    2.233594493608   -0.870651232667    0.643343276505
 N   -0.083986842391   -0.759548974199    0.656437351947
 C   -1.141672955204    0.041803056676    0.653944307119
 N   -2.373666071660   -0.561995972404    0.608538483910
 H   -2.382600539981   -1.561689858915    0.778109092475
 H   -3.192243815863   -0.035567653004    0.883438608707
 C   -1.073090956770    1.483179895871    0.650460873453
 H   -1.961614672455    2.114497487115    0.640978919426
 H    2.215655089899    1.576509331562    0.641500552705
 K   -0.104557464463   -0.760154988607   -1.843477943069
