14

 N    1.272142417878    1.201873711904    0.696753884129
 C    0.186695474975    2.024632681732    0.699895755350
 H    0.378216314857    3.099689654231    0.697391156808
 C    1.190278697196   -0.217396749822    0.697771553013
 O    2.234021944514   -0.870638639883    0.695290711701
 N   -0.083559391485   -0.759536381415    0.708384787143
 C   -1.141245504298    0.041815649460    0.705891742315
 N   -2.373238620754   -0.561983379620    0.660485919106
 H   -2.382173089075   -1.561677266131    0.830056527671
 H   -3.191816364957   -0.035555060220    0.935386043903
 C   -1.072663505864    1.483192488655    0.702408308649
 H   -1.961187221549    2.114510079899    0.692926354622
 H    2.216082540805    1.576521924346    0.693447987901
 K   -0.105775663323   -0.760190876976   -1.991523731474
