14

 N    1.272356143331    1.201880008296    0.722727601727
 C    0.186909200428    2.024638978124    0.725869472948
 H    0.378430040310    3.099695950623    0.723364874406
 C    1.190492422649   -0.217390453430    0.723745270611
 O    2.234235669967   -0.870632343491    0.721264429299
 N   -0.083345666032   -0.759530085023    0.734358504741
 C   -1.141031778845    0.041821945852    0.731865459913
 N   -2.373024895301   -0.561977083228    0.686459636704
 H   -2.381959363622   -1.561670969739    0.856030245269
 H   -3.191602639504   -0.035548763828    0.961359761501
 C   -1.072449780411    1.483198785047    0.728382026247
 H   -1.960973496096    2.114516376291    0.718900072220
 H    2.216296266258    1.576528220738    0.719421705499
 K   -0.106384762753   -0.760208821160   -2.065546625677
