14

 N    1.272569868783    1.201886304689    0.748701319324
 C    0.187122925880    2.024645274517    0.751843190545
 H    0.378643765762    3.099702247016    0.749338592003
 C    1.190706148101   -0.217384157037    0.749718988208
 O    2.234449395419   -0.870626047098    0.747238146896
 N   -0.083131940580   -0.759523788630    0.760332222338
 C   -1.140818053393    0.041828242245    0.757839177510
 N   -2.372811169849   -0.561970786835    0.712433354301
 H   -2.381745638170   -1.561664673346    0.882003962866
 H   -3.191388914052   -0.035542467435    0.987333479098
 C   -1.072236054959    1.483205081440    0.754355743844
 H   -1.960759770644    2.114522672684    0.744873789817
 H    2.216509991710    1.576534517131    0.745395423096
 K   -0.106993862183   -0.760226765344   -2.139569519880
