14

 N    1.272783594236    1.201892601081    0.774675036922
 C    0.187336651333    2.024651570909    0.777816908143
 H    0.378857491215    3.099708543408    0.775312309601
 C    1.190919873554   -0.217377860645    0.775692705806
 O    2.234663120872   -0.870619750706    0.773211864494
 N   -0.082918215127   -0.759517492238    0.786305939936
 C   -1.140604327940    0.041834538637    0.783812895108
 N   -2.372597444396   -0.561964490443    0.738407071899
 H   -2.381531912717   -1.561658376954    0.907977680464
 H   -3.191175188599   -0.035536171043    1.013307196696
 C   -1.072022329506    1.483211377832    0.780329461442
 H   -1.960546045191    2.114528969076    0.770847507415
 H    2.216723717163    1.576540813523    0.771369140694
 K   -0.107602961613   -0.760244709528   -2.213592414083
