14

 N    1.274065946953    1.201930379434    0.930517342510
 C    0.188619004050    2.024689349262    0.933659213731
 H    0.380139843932    3.099746321761    0.931154615189
 C    1.192202226271   -0.217340082292    0.931535011394
 O    2.235945473589   -0.870581972353    0.929054170082
 N   -0.081635862410   -0.759479713885    0.942148245524
 C   -1.139321975223    0.041872316990    0.939655200696
 N   -2.371315091679   -0.561926712090    0.894249377487
 H   -2.380249560000   -1.561620598601    1.063819986052
 H   -3.189892835882   -0.035498392690    1.169149502284
 C   -1.070739976789    1.483249156185    0.936171767030
 H   -1.959263692474    2.114566747429    0.926689813003
 H    2.218006069880    1.576578591876    0.927211446282
 K   -0.111257558193   -0.760352374633   -2.657729779299
