14

 N    1.274279672406    1.201936675826    0.956491060108
 C    0.188832729503    2.024695645654    0.959632931329
 H    0.380353569385    3.099752618153    0.957128332787
 C    1.192415951724   -0.217333785900    0.957508728992
 O    2.236159199042   -0.870575675961    0.955027887680
 N   -0.081422136957   -0.759473417493    0.968121963122
 C   -1.139108249770    0.041878613382    0.965628918294
 N   -2.371101366226   -0.561920415698    0.920223095085
 H   -2.380035834547   -1.561614302209    1.089793703650
 H   -3.189679110429   -0.035492096298    1.195123219882
 C   -1.070526251336    1.483255452577    0.962145484628
 H   -1.959049967021    2.114573043821    0.952663530601
 H    2.218219795333    1.576584888268    0.953185163880
 K   -0.111866657623   -0.760370318817   -2.731752673502
