14

 N    1.274493397859    1.201942972218    0.982464777706
 C    0.189046454956    2.024701942046    0.985606648927
 H    0.380567294838    3.099758914545    0.983102050385
 C    1.192629677177   -0.217327489508    0.983482446590
 O    2.236372924495   -0.870569379569    0.981001605278
 N   -0.081208411504   -0.759467121101    0.994095680720
 C   -1.138894524317    0.041884909774    0.991602635892
 N   -2.370887640773   -0.561914119306    0.946196812683
 H   -2.379822109094   -1.561608005817    1.115767421248
 H   -3.189465384976   -0.035485799906    1.221096937480
 C   -1.070312525883    1.483261748969    0.988119202226
 H   -1.958836241568    2.114579340213    0.978637248199
 H    2.218433520786    1.576591184660    0.979158881478
 K   -0.112475757053   -0.760388263001   -2.805775567704
