14

 N    1.274707123312    1.201949268610    1.008438495304
 C    0.189260180409    2.024708238438    1.011580366525
 H    0.380781020291    3.099765210937    1.009075767983
 C    1.192843402630   -0.217321193116    1.009456164188
 O    2.236586649948   -0.870563083177    1.006975322876
 N   -0.080994686051   -0.759460824709    1.020069398318
 C   -1.138680798864    0.041891206166    1.017576353490
 N   -2.370673915320   -0.561907822914    0.972170530281
 H   -2.379608383641   -1.561601709425    1.141741138846
 H   -3.189251659523   -0.035479503514    1.247070655078
 C   -1.070098800430    1.483268045361    1.014092919824
 H   -1.958622516115    2.114585636605    1.004610965797
 H    2.218647246239    1.576597481052    1.005132599076
 K   -0.113084856483   -0.760406207185   -2.879798461907
