14

 N    1.275348299670    1.201968157787    1.086359648097
 C    0.189901356767    2.024727127615    1.089501519318
 H    0.381422196649    3.099784100114    1.086996920776
 C    1.193484578988   -0.217302303939    1.087377316981
 O    2.237227826306   -0.870544194000    1.084896475669
 N   -0.080353509693   -0.759441935532    1.097990551111
 C   -1.138039622506    0.041910095343    1.095497506283
 N   -2.370032738962   -0.561888933737    1.050091683074
 H   -2.378967207283   -1.561582820248    1.219662291639
 H   -3.188610483165   -0.035460614337    1.324991807871
 C   -1.069457624072    1.483286934538    1.092014072617
 H   -1.957981339757    2.114604525782    1.082532118590
 H    2.219288422597    1.576616370229    1.083053751869
 K   -0.114912154774   -0.760460039738   -3.101867144515
