14

 N    1.275989476029    1.201987046963    1.164280800891
 C    0.190542533126    2.024746016791    1.167422672112
 H    0.382063373008    3.099802989290    1.164918073570
 C    1.194125755347   -0.217283414763    1.165298469775
 O    2.237869002665   -0.870525304824    1.162817628463
 N   -0.079712333334   -0.759423046356    1.175911703905
 C   -1.137398446147    0.041928984519    1.173418659077
 N   -2.369391562603   -0.561870044561    1.128012835868
 H   -2.378326030924   -1.561563931072    1.297583444433
 H   -3.187969306806   -0.035441725161    1.402912960665
 C   -1.068816447713    1.483305823714    1.169935225411
 H   -1.957340163398    2.114623414958    1.160453271384
 H    2.219929598956    1.576635259405    1.160974904663
 K   -0.116739453064   -0.760513872290   -3.323935827123
