14

 N    1.276203201482    1.201993343356    1.190254518489
 C    0.190756258579    2.024752313184    1.193396389710
 H    0.382277098461    3.099809285683    1.190891791168
 C    1.194339480800   -0.217277118370    1.191272187373
 O    2.238082728118   -0.870519008431    1.188791346061
 N   -0.079498607881   -0.759416749963    1.201885421503
 C   -1.137184720694    0.041935280912    1.199392376675
 N   -2.369177837150   -0.561863748168    1.153986553466
 H   -2.378112305471   -1.561557634679    1.323557162031
 H   -3.187755581353   -0.035435428768    1.428886678263
 C   -1.068602722260    1.483312120107    1.195908943009
 H   -1.957126437945    2.114629711351    1.186426988982
 H    2.220143324409    1.576641555798    1.186948622261
 K   -0.117348552494   -0.760531816474   -3.397958721326
