14

 N    1.276630652388    1.202005936140    1.242201953685
 C    0.191183709485    2.024764905968    1.245343824906
 H    0.382704549367    3.099821878467    1.242839226364
 C    1.194766931706   -0.217264525586    1.243219622569
 O    2.238510179024   -0.870506415647    1.240738781257
 N   -0.079071156975   -0.759404157179    1.253832856699
 C   -1.136757269788    0.041947873696    1.251339811871
 N   -2.368750386244   -0.561851155384    1.205933988662
 H   -2.377684854565   -1.561545041895    1.375504597227
 H   -3.187328130447   -0.035422835984    1.480834113459
 C   -1.068175271354    1.483324712891    1.247856378205
 H   -1.956698987039    2.114642304135    1.238374424178
 H    2.220570775315    1.576654148582    1.238896057457
 K   -0.118566751354   -0.760567704843   -3.546004509732
