14

 N    1.277271828746    1.202024825316    1.320123106479
 C    0.191824885843    2.024783795144    1.323264977700
 H    0.383345725725    3.099840767643    1.320760379158
 C    1.195408108064   -0.217245636410    1.321140775363
 O    2.239151355382   -0.870487526471    1.318659934051
 N   -0.078429980617   -0.759385268003    1.331754009493
 C   -1.136116093430    0.041966762872    1.329260964665
 N   -2.368109209886   -0.561832266208    1.283855141456
 H   -2.377043678207   -1.561526152719    1.453425750021
 H   -3.186686954089   -0.035403946808    1.558755266253
 C   -1.067534094996    1.483343602067    1.325777530999
 H   -1.956057810681    2.114661193311    1.316295576972
 H    2.221211951673    1.576673037758    1.316817210251
 K   -0.120394049644   -0.760621537395   -3.768073192340
