14

 N    1.277913005105    1.202043714493    1.398044259272
 C    0.192466062202    2.024802684321    1.401186130493
 H    0.383986902084    3.099859656820    1.398681531951
 C    1.196049284423   -0.217226747233    1.399061928156
 O    2.239792531741   -0.870468637294    1.396581086844
 N   -0.077788804258   -0.759366378826    1.409675162286
 C   -1.135474917071    0.041985652049    1.407182117458
 N   -2.367468033527   -0.561813377031    1.361776294249
 H   -2.376402501848   -1.561507263542    1.531346902814
 H   -3.186045777730   -0.035385057631    1.636676419046
 C   -1.066892918637    1.483362491244    1.403698683792
 H   -1.955416634322    2.114680082488    1.394216729765
 H    2.221853128032    1.576691926935    1.394738363044
 K   -0.122221347934   -0.760675369948   -3.990141874948
