14

 N    1.278126730558    1.202050010885    1.424017976870
 C    0.192679787655    2.024808980713    1.427159848091
 H    0.384200627537    3.099865953212    1.424655249549
 C    1.196263009876   -0.217220450841    1.425035645754
 O    2.240006257194   -0.870462340902    1.422554804442
 N   -0.077575078805   -0.759360082434    1.435648879884
 C   -1.135261191618    0.041991948441    1.433155835056
 N   -2.367254308074   -0.561807080639    1.387750011847
 H   -2.376188776395   -1.561500967150    1.557320620412
 H   -3.185832052277   -0.035378761239    1.662650136644
 C   -1.066679193184    1.483368787636    1.429672401390
 H   -1.955202908869    2.114686378880    1.420190447363
 H    2.222066853485    1.576698223327    1.420712080642
 K   -0.122830447364   -0.760693314132   -4.064164769151
