14

 N    1.278554181463    1.202062603669    1.475965412066
 C    0.193107238560    2.024821573497    1.479107283287
 H    0.384628078442    3.099878545996    1.476602684745
 C    1.196690460781   -0.217207858057    1.476983080950
 O    2.240433708099   -0.870449748118    1.474502239638
 N   -0.077147627900   -0.759347489650    1.487596315080
 C   -1.134833740713    0.042004541225    1.485103270252
 N   -2.366826857169   -0.561794487855    1.439697447043
 H   -2.375761325490   -1.561488374366    1.609268055608
 H   -3.185404601372   -0.035366168455    1.714597571840
 C   -1.066251742279    1.483381380420    1.481619836586
 H   -1.954775457964    2.114698971664    1.472137882559
 H    2.222494304390    1.576710816111    1.472659515838
 K   -0.124048646224   -0.760729202500   -4.212210557556
