14

 N    1.279622808727    1.202094085630    1.605834000056
 C    0.194175865824    2.024853055458    1.608975871277
 H    0.385696705706    3.099910027957    1.606471272735
 C    1.197759088045   -0.217176376096    1.606851668940
 O    2.241502335363   -0.870418266157    1.604370827628
 N   -0.076079000636   -0.759316007689    1.617464903070
 C   -1.133765113449    0.042036023186    1.614971858242
 N   -2.365758229905   -0.561763005894    1.569566035033
 H   -2.374692698226   -1.561456892405    1.739136643598
 H   -3.184335974108   -0.035334686494    1.844466159830
 C   -1.065183115015    1.483412862381    1.611488424576
 H   -1.953706830700    2.114730453625    1.602006470549
 H    2.223562931654    1.576742298072    1.602528103828
 K   -0.127094143374   -0.760818923421   -4.582325028570
