14

 N    1.279836534180    1.202100382022    1.631807717653
 C    0.194389591277    2.024859351850    1.634949588874
 H    0.385910431159    3.099916324349    1.632444990332
 C    1.197972813498   -0.217170079704    1.632825386537
 O    2.241716060816   -0.870411969765    1.630344545225
 N   -0.075865275183   -0.759309711297    1.643438620667
 C   -1.133551387996    0.042042319578    1.640945575839
 N   -2.365544504452   -0.561756709502    1.595539752630
 H   -2.374478972773   -1.561450596013    1.765110361195
 H   -3.184122248655   -0.035328390102    1.870439877427
 C   -1.064969389562    1.483419158773    1.637462142173
 H   -1.953493105247    2.114736750017    1.627980188146
 H    2.223776657107    1.576748594464    1.628501821425
 K   -0.127703242804   -0.760836867605   -4.656347922772
