14

 N    1.280691435992    1.202125567591    1.735702588045
 C    0.195244493089    2.024884537419    1.738844459266
 H    0.386765332971    3.099941509918    1.736339860724
 C    1.198827715310   -0.217144894135    1.736720256929
 O    2.242570962628   -0.870386784196    1.734239415617
 N   -0.075010373371   -0.759284525728    1.747333491059
 C   -1.132696486184    0.042067505147    1.744840446231
 N   -2.364689602640   -0.561731523933    1.699434623022
 H   -2.373624070961   -1.561425410444    1.869005231587
 H   -3.183267346843   -0.035303204533    1.974334747819
 C   -1.064114487750    1.483444344342    1.741357012565
 H   -1.952638203435    2.114761935586    1.731875058538
 H    2.224631558919    1.576773780033    1.732396691817
 K   -0.130139640524   -0.760908644342   -4.952439499583
