14

 N    1.281118886897    1.202138160375    1.787650023241
 C    0.195671943994    2.024897130203    1.790791894462
 H    0.387192783876    3.099954102702    1.788287295920
 C    1.199255166215   -0.217132301351    1.788667692125
 O    2.242998413533   -0.870374191412    1.786186850813
 N   -0.074582922466   -0.759271932944    1.799280926255
 C   -1.132269035279    0.042080097931    1.796787881427
 N   -2.364262151735   -0.561718931149    1.751382058218
 H   -2.373196620056   -1.561412817660    1.920952666783
 H   -3.182839895938   -0.035290611749    2.026282183015
 C   -1.063687036845    1.483456937126    1.793304447761
 H   -1.952210752530    2.114774528370    1.783822493734
 H    2.225059009824    1.576786372817    1.784344127013
 K   -0.131357839384   -0.760944532710   -5.100485287989
