14

 N    1.281332612350    1.202144456768    1.813623740839
 C    0.195885669447    2.024903426596    1.816765612060
 H    0.387406509329    3.099960399095    1.814261013518
 C    1.199468891668   -0.217126004958    1.814641409723
 O    2.243212138986   -0.870367895019    1.812160568411
 N   -0.074369197013   -0.759265636551    1.825254643853
 C   -1.132055309826    0.042086394324    1.822761599025
 N   -2.364048426282   -0.561712634756    1.777355775816
 H   -2.372982894603   -1.561406521267    1.946926384381
 H   -3.182626170485   -0.035284315356    2.052255900613
 C   -1.063473311392    1.483463233519    1.819278165359
 H   -1.951997027077    2.114780824763    1.809796211332
 H    2.225272735277    1.576792669210    1.810317844611
 K   -0.131966938814   -0.760962476894   -5.174508182191
