14

 N    1.281546337803    1.202150753160    1.839597458437
 C    0.196099394900    2.024909722988    1.842739329658
 H    0.387620234782    3.099966695487    1.840234731116
 C    1.199682617121   -0.217119708566    1.840615127321
 O    2.243425864439   -0.870361598627    1.838134286009
 N   -0.074155471560   -0.759259340159    1.851228361451
 C   -1.131841584373    0.042092690716    1.848735316623
 N   -2.363834700829   -0.561706338364    1.803329493414
 H   -2.372769169150   -1.561400224875    1.972900101979
 H   -3.182412445032   -0.035278018964    2.078229618211
 C   -1.063259585939    1.483469529911    1.845251882957
 H   -1.951783301624    2.114787121155    1.835769928930
 H    2.225486460730    1.576798965602    1.836291562209
 K   -0.132576038244   -0.760980421078   -5.248531076394
