14

 N    1.281973788709    1.202163345944    1.891544893633
 C    0.196526845806    2.024922315772    1.894686764854
 H    0.388047685688    3.099979288271    1.892182166312
 C    1.200110068027   -0.217107115782    1.892562562517
 O    2.243853315345   -0.870349005843    1.890081721205
 N   -0.073728020654   -0.759246747375    1.903175796647
 C   -1.131414133467    0.042105283500    1.900682751819
 N   -2.363407249923   -0.561693745580    1.855276928610
 H   -2.372341718244   -1.561387632091    2.024847537175
 H   -3.181984994126   -0.035265426180    2.130177053407
 C   -1.062832135033    1.483482122695    1.897199318153
 H   -1.951355850718    2.114799713939    1.887717364126
 H    2.225913911636    1.576811558386    1.888238997405
 K   -0.133794237105   -0.761016309447   -5.396576864800
