14

 N    1.282401239615    1.202175938729    1.943492328828
 C    0.196954296712    2.024934908557    1.946634200049
 H    0.388475136594    3.099991881056    1.944129601507
 C    1.200537518933   -0.217094522997    1.944509997712
 O    2.244280766251   -0.870336413058    1.942029156400
 N   -0.073300569748   -0.759234154590    1.955123231842
 C   -1.130986682561    0.042117876285    1.952630187014
 N   -2.362979799017   -0.561681152795    1.907224363805
 H   -2.371914267338   -1.561375039306    2.076794972370
 H   -3.181557543220   -0.035252833395    2.182124488602
 C   -1.062404684127    1.483494715480    1.949146753348
 H   -1.950928399812    2.114812306724    1.939664799321
 H    2.226341362542    1.576824151171    1.940186432600
 K   -0.135012435965   -0.761052197815   -5.544622653205
