14

 N    1.283042415973    1.202194827905    2.021413481622
 C    0.197595473070    2.024953797733    2.024555352843
 H    0.389116312952    3.100010770232    2.022050754301
 C    1.201178695291   -0.217075633821    2.022431150506
 O    2.244921942609   -0.870317523882    2.019950309194
 N   -0.072659393390   -0.759215265414    2.033044384636
 C   -1.130345506203    0.042136765461    2.030551339808
 N   -2.362338622659   -0.561662263619    1.985145516599
 H   -2.371273090980   -1.561356150130    2.154716125164
 H   -3.180916366862   -0.035233944219    2.260045641396
 C   -1.061763507769    1.483513604656    2.027067906142
 H   -1.950287223454    2.114831195900    2.017585952115
 H    2.226982538900    1.576843040347    2.018107585394
 K   -0.136839734255   -0.761106030367   -5.766691335813
