14

 N    1.283683592332    1.202213717082    2.099334634416
 C    0.198236649429    2.024972686910    2.102476505637
 H    0.389757489311    3.100029659409    2.099971907095
 C    1.201819871650   -0.217056744644    2.100352303300
 O    2.245563118968   -0.870298634705    2.097871461988
 N   -0.072018217031   -0.759196376237    2.110965537430
 C   -1.129704329844    0.042155654638    2.108472492602
 N   -2.361697446300   -0.561643374442    2.063066669393
 H   -2.370631914621   -1.561337260953    2.232637277958
 H   -3.180275190503   -0.035215055042    2.337966794190
 C   -1.061122331410    1.483532493833    2.104989058936
 H   -1.949646047095    2.114850085077    2.095507104909
 H    2.227623715259    1.576861929524    2.096028738188
 K   -0.138667032545   -0.761159862920   -5.988760018421
