14

 N    1.283897317784    1.202220013474    2.125308352014
 C    0.198450374881    2.024978983302    2.128450223235
 H    0.389971214763    3.100035955801    2.125945624693
 C    1.202033597102   -0.217050448252    2.126326020898
 O    2.245776844420   -0.870292338313    2.123845179586
 N   -0.071804491579   -0.759190079845    2.136939255028
 C   -1.129490604392    0.042161951030    2.134446210200
 N   -2.361483720848   -0.561637078050    2.089040386991
 H   -2.370418189169   -1.561330964561    2.258610995556
 H   -3.180061465051   -0.035208758650    2.363940511788
 C   -1.060908605958    1.483538790225    2.130962776534
 H   -1.949432321643    2.114856381469    2.121480822507
 H    2.227837440711    1.576868225916    2.122002455786
 K   -0.139276131975   -0.761177807104   -6.062782912624
