14

 N    1.284752219596    1.202245199042    2.229203222405
 C    0.199305276693    2.025004168870    2.232345093626
 H    0.390826116575    3.100061141369    2.229840495084
 C    1.202888498914   -0.217025262684    2.230220891289
 O    2.246631746232   -0.870267152745    2.227740049977
 N   -0.070949589767   -0.759164894277    2.240834125419
 C   -1.128635702580    0.042187136598    2.238341080591
 N   -2.360628819036   -0.561611892482    2.192935257382
 H   -2.369563287357   -1.561305778993    2.362505865947
 H   -3.179206563239   -0.035183573082    2.467835382179
 C   -1.060053704146    1.483563975793    2.234857646925
 H   -1.948577419831    2.114881567037    2.225375692898
 H    2.228692342523    1.576893411484    2.225897326177
 K   -0.141712529695   -0.761249583840   -6.358874489435
