14

 N    1.285393395954    1.202264088219    2.307124375199
 C    0.199946453051    2.025023058047    2.310266246420
 H    0.391467292933    3.100080030546    2.307761647878
 C    1.203529675272   -0.217006373507    2.308142044083
 O    2.247272922590   -0.870248263568    2.305661202771
 N   -0.070308413409   -0.759146005100    2.318755278213
 C   -1.127994526222    0.042206025775    2.316262233385
 N   -2.359987642678   -0.561593003305    2.270856410176
 H   -2.368922110999   -1.561286889816    2.440427018741
 H   -3.178565386881   -0.035164683905    2.545756534973
 C   -1.059412527788    1.483582864970    2.312778799719
 H   -1.947936243473    2.114900456214    2.303296845692
 H    2.229333518881    1.576912300661    2.303818478971
 K   -0.143539827985   -0.761303416393   -6.580943172043
