14

 N    1.286675748672    1.202301866572    2.462966680787
 C    0.201228805769    2.025060836400    2.466108552008
 H    0.392749645651    3.100117808899    2.463603953466
 C    1.204812027990   -0.216968595154    2.463984349671
 O    2.248555275308   -0.870210485215    2.461503508359
 N   -0.069026060691   -0.759108226747    2.474597583801
 C   -1.126712173504    0.042243804128    2.472104538973
 N   -2.358705289960   -0.561555224952    2.426698715764
 H   -2.367639758281   -1.561249111463    2.596269324329
 H   -3.177283034163   -0.035126905552    2.701598840561
 C   -1.058130175070    1.483620643323    2.468621105307
 H   -1.946653890755    2.114938234567    2.459139151280
 H    2.230615871599    1.576950079014    2.459660784559
 K   -0.147194424565   -0.761411081498   -7.025080537260
