20

 C    0.335110259545    3.634111141984    0.180037276144
 H    0.886870259545    4.569171141984    0.136077276144
 C    0.746780259545    2.314041141984    0.294737276144
 H    1.766130259545    1.941181141984    0.377227276144
 N   -1.037949740455    3.577851141984    0.137877276144
 H   -1.661209740455    4.380161141984    0.066887276144
 C   -1.435269740455    2.283711141984    0.223697276144
 H   -2.479209740455    1.980781141984    0.225927276144
 N   -0.363239740455    1.466231141984    0.322617276144
NA   -0.003779740455   -0.447418858016    1.683237276144
NA    0.100500259545    0.057001141984   -1.769142723856
 N    0.330557006890   -1.334307409787   -0.293590879655
 C   -0.779459378545   -2.182115865872   -0.265711375402
 H   -1.798814268272   -1.809248087821   -0.348201135258
 C   -0.367799191077   -3.502188279397   -0.151009747236
 H   -0.919555737493   -4.437245348314   -0.107048953853
 N    1.005272422099   -3.445935822371   -0.108849065706
 H    1.628523733855   -4.248242974981   -0.037853772436
 C    1.402589038923   -2.151790425742   -0.194669743738
 H    2.446532471820   -1.848858237564   -0.196891989976
