20

 C    0.317533148081    3.705061861301    0.195648706265
 H    0.869293148081    4.640121861301    0.151688706265
 C    0.729203148081    2.384991861301    0.310348706265
 H    1.748553148081    2.012131861301    0.392838706265
 N   -1.055526851919    3.648801861301    0.153488706265
 H   -1.678786851919    4.451111861301    0.082498706265
 C   -1.452846851919    2.354661861301    0.239308706265
 H   -2.496786851919    2.051731861301    0.241538706265
 N   -0.380816851919    1.537181861301    0.338228706265
NA   -0.021356851919   -0.376468138699    1.698848706265
NA    0.082923148081    0.127951861301   -1.753531293735
 N    0.360012686650   -1.453206449098   -0.319752475501
 C   -0.750003698784   -2.301014905183   -0.291872971248
 H   -1.769358588511   -1.928147127132   -0.374362731103
 C   -0.338343511317   -3.621087318709   -0.177171343081
 H   -0.890100057733   -4.556144387626   -0.133210549699
 N    1.034728101860   -3.564834861683   -0.135010661551
 H    1.657979413615   -4.367142014293   -0.064015368281
 C    1.432044718683   -2.270689465053   -0.220831339583
 H    2.475988151580   -1.967757276876   -0.223053585821
