20

 C    0.308744592349    3.740537220959    0.203454421325
 H    0.860504592349    4.675597220959    0.159494421325
 C    0.720414592349    2.420467220959    0.318154421325
 H    1.739764592349    2.047607220959    0.400644421325
 N   -1.064315407651    3.684277220959    0.161294421325
 H   -1.687575407651    4.486587220959    0.090304421325
 C   -1.461635407651    2.390137220959    0.247114421325
 H   -2.505575407651    2.087207220959    0.249344421325
 N   -0.389605407651    1.572657220959    0.346034421325
NA   -0.030145407651   -0.340992779041    1.706654421325
NA    0.074134592349    0.163427220959   -1.745725578675
 N    0.374740526530   -1.512655968754   -0.332833273423
 C   -0.735275858904   -2.360464424839   -0.304953769170
 H   -1.754630748631   -1.987596646788   -0.387443529026
 C   -0.323615671437   -3.680536838364   -0.190252141004
 H   -0.875372217853   -4.615593907282   -0.146291347621
 N    1.049455941740   -3.624284381339   -0.148091459474
 H    1.672707253495   -4.426591533949   -0.077096166204
 C    1.446772558564   -2.330138984709   -0.233912137506
 H    2.490715991460   -2.027206796531   -0.236134383744
