20

 C    0.299956036617    3.776012580617    0.211260136386
 H    0.851716036617    4.711072580617    0.167300136386
 C    0.711626036617    2.455942580617    0.325960136386
 H    1.730976036617    2.083082580617    0.408450136386
 N   -1.073103963383    3.719752580617    0.169100136386
 H   -1.696363963383    4.522062580617    0.098110136386
 C   -1.470423963383    2.425612580617    0.254920136386
 H   -2.514363963383    2.122682580617    0.257150136386
 N   -0.398393963383    1.608132580617    0.353840136386
NA   -0.038933963383   -0.305517419383    1.714460136386
NA    0.065346036617    0.198902580617   -1.737919863614
 N    0.389468366410   -1.572105488410   -0.345914071346
 C   -0.720548019024   -2.419913944495   -0.318034567093
 H   -1.739902908751   -2.047046166444   -0.400524326948
 C   -0.308887831557   -3.739986358020   -0.203332938927
 H   -0.860644377973   -4.675043426938   -0.159372145544
 N    1.064183781620   -3.683733900995   -0.161172257397
 H    1.687435093375   -4.486041053605   -0.090176964127
 C    1.461500398444   -2.389588504365   -0.246992935429
 H    2.505443831340   -2.086656316187   -0.249215181667
