20

 C   -0.438282644870    6.755942791916    0.866940201477
 H    0.113477355130    7.691002791916    0.822980201477
 C   -0.026612644870    5.435872791916    0.981640201477
 H    0.992737355130    5.063012791916    1.064130201477
 N   -1.811342644870    6.699682791916    0.824780201477
 H   -2.434602644870    7.501992791916    0.753790201477
 C   -2.208662644870    5.405542791916    0.910600201477
 H   -3.252602644870    5.102612791916    0.912830201477
 N   -1.136632644870    4.588062791916    1.009520201477
NA   -0.777172644870    2.674412791916    2.370140201477
NA   -0.672892644870    3.178832791916   -1.082239798523
 N    1.626606916337   -6.565865139505   -1.444701096848
 C    0.516590530903   -7.413673595590   -1.416821592595
 H   -0.502764358824   -7.040805817539   -1.499311352451
 C    0.928250718370   -8.733746009115   -1.302119964429
 H    0.376494171954   -9.668803078032   -1.258159171046
 N    2.301322331547   -8.677493552089   -1.259959282899
 H    2.924573643302   -9.479800704699   -1.188963989629
 C    2.698638948371   -7.383348155460   -1.345779960931
 H    3.742582381267   -7.080415967282   -1.348002207169
