20

 C    0.238436146493    4.024340098225    0.265900141810
 H    0.790196146493    4.959400098225    0.221940141810
 C    0.650106146493    2.704270098225    0.380600141810
 H    1.669456146493    2.331410098225    0.463090141810
 N   -1.134623853507    3.968080098225    0.223740141810
 H   -1.757883853507    4.770390098225    0.152750141810
 C   -1.531943853507    2.673940098225    0.309560141810
 H   -2.575883853507    2.371010098225    0.311790141810
 N   -0.459913853507    1.856460098225    0.408480141810
NA   -0.100453853507   -0.057189901775    1.769100141810
NA    0.003826146493    0.447230098225   -1.683279858190
 N    0.492563245571   -1.988252126001   -0.437479656805
 C   -0.617453139864   -2.836060582086   -0.409600152551
 H   -1.636808029591   -2.463192804035   -0.492089912407
 C   -0.205792952396   -4.156132995612   -0.294898524385
 H   -0.757549498812   -5.091190064529   -0.250937731002
 N    1.167278660780   -4.099880538586   -0.252737842855
 H    1.790529972536   -4.902187691196   -0.181742549585
 C    1.564595277604   -2.805735141956   -0.338558520887
 H    2.608538710501   -2.502802953779   -0.340780767125
