20

 C    0.212070479297    4.130766177200    0.289317286992
 H    0.763830479297    5.065826177200    0.245357286992
 C    0.623740479297    2.810696177200    0.404017286992
 H    1.643090479297    2.437836177200    0.486507286992
 N   -1.160989520703    4.074506177200    0.247157286992
 H   -1.784249520703    4.876816177200    0.176167286992
 C   -1.558309520703    2.780366177200    0.332977286992
 H   -2.602249520703    2.477436177200    0.335207286992
 N   -0.486279520703    1.962886177200    0.431897286992
NA   -0.126819520703    0.049236177200    1.792517286992
NA   -0.022539520703    0.553656177200   -1.659862713008
 N    0.536746765211   -2.166600684969   -0.476722050572
 C   -0.573269620223   -3.014409141054   -0.448842546319
 H   -1.592624509950   -2.641541363003   -0.531332306175
 C   -0.161609432756   -4.334481554579   -0.334140918153
 H   -0.713365979172   -5.269538623496   -0.290180124770
 N    1.211462180421   -4.278229097554   -0.291980236623
 H    1.834713492176   -5.080536250163   -0.220984943353
 C    1.608778797244   -2.984083700924   -0.377800914655
 H    2.652722230141   -2.681151512746   -0.380023160893
