20

 C    0.194493367833    4.201716896517    0.304928717113
 H    0.746253367833    5.136776896517    0.260968717113
 C    0.606163367833    2.881646896517    0.419628717113
 H    1.625513367833    2.508786896517    0.502118717113
 N   -1.178566632167    4.145456896517    0.262768717113
 H   -1.801826632167    4.947766896517    0.191778717113
 C   -1.575886632167    2.851316896517    0.348588717113
 H   -2.619826632167    2.548386896517    0.350818717113
 N   -0.503856632167    2.033836896517    0.447508717113
NA   -0.144396632167    0.120186896517    1.808128717113
NA   -0.040116632167    0.624606896517   -1.644251282887
 N    0.566202444971   -2.285499724281   -0.502883646418
 C   -0.543813940463   -3.133308180366   -0.475004142165
 H   -1.563168830190   -2.760440402315   -0.557493902020
 C   -0.132153752996   -4.453380593891   -0.360302513998
 H   -0.683910299412   -5.388437662808   -0.316341720616
 N    1.240917860181   -4.397128136865   -0.318141832468
 H    1.864169171936   -5.199435289475   -0.247146539199
 C    1.638234477005   -3.102982740236   -0.403962510501
 H    2.682177909901   -2.800050552058   -0.406184756739
