20

 C    0.115396366245    4.520995133442    0.375180152659
 H    0.667156366245    5.456055133442    0.331220152659
 C    0.527066366245    3.200925133442    0.489880152659
 H    1.546416366245    2.828065133442    0.572370152659
 N   -1.257663633755    4.464735133442    0.333020152659
 H   -1.880923633755    5.267045133442    0.262030152659
 C   -1.654983633755    3.170595133442    0.418840152659
 H   -2.698923633755    2.867665133442    0.421070152659
 N   -0.582953633755    2.353115133442    0.517760152659
NA   -0.223493633755    0.439465133442    1.878380152659
NA   -0.119213633755    0.943885133442   -1.573999847341
 N    0.698753003892   -2.820545401184   -0.620610827722
 C   -0.411263381543   -3.668353857269   -0.592731323468
 H   -1.430618271270   -3.295486079218   -0.675221083324
 C    0.000396805925   -4.988426270794   -0.478029695302
 H   -0.551359740491   -5.923483339711   -0.434068901920
 N    1.373468419102   -4.932173813768   -0.435869013772
 H    1.996719730857   -5.734480966378   -0.364873720502
 C    1.770785035925   -3.638028417139   -0.521689691804
 H    2.814728468822   -3.335096228961   -0.523911938042
