20

 C    0.106607810513    4.556470493100    0.382985867719
 H    0.658367810513    5.491530493100    0.339025867719
 C    0.518277810513    3.236400493100    0.497685867719
 H    1.537627810513    2.863540493100    0.580175867719
 N   -1.266452189487    4.500210493100    0.340825867719
 H   -1.889712189487    5.302520493100    0.269835867719
 C   -1.663772189487    3.206070493100    0.426645867719
 H   -2.707712189487    2.903140493100    0.428875867719
 N   -0.591742189487    2.388590493100    0.525565867719
NA   -0.232282189487    0.474940493100    1.886185867719
NA   -0.128002189487    0.979360493100   -1.566194132281
 N    0.713480843772   -2.879994920840   -0.633691625644
 C   -0.396535541662   -3.727803376925   -0.605812121391
 H   -1.415890431389   -3.354935598874   -0.688301881247
 C    0.015124645805   -5.047875790450   -0.491110493225
 H   -0.536631900611   -5.982932859367   -0.447149699842
 N    1.388196258982   -4.991623333424   -0.448949811695
 H    2.011447570737   -5.793930486034   -0.377954518425
 C    1.785512875805   -3.697477936795   -0.534770489727
 H    2.829456308702   -3.394545748617   -0.536992735965
