20

 C    0.089030699049    4.627421212417    0.398597297841
 H    0.640790699049    5.562481212417    0.354637297841
 C    0.500700699049    3.307351212417    0.513297297841
 H    1.520050699049    2.934491212417    0.595787297841
 N   -1.284029300951    4.571161212417    0.356437297841
 H   -1.907289300951    5.373471212417    0.285447297841
 C   -1.681349300951    3.277021212417    0.442257297841
 H   -2.725289300951    2.974091212417    0.444487297841
 N   -0.609319300951    2.459541212417    0.541177297841
NA   -0.249859300951    0.545891212417    1.901797297841
NA   -0.145579300951    1.050311212417   -1.550582702159
 N    0.742936523532   -2.998893960151   -0.659853221490
 C   -0.367079861902   -3.846702416236   -0.631973717236
 H   -1.386434751629   -3.473834638185   -0.714463477092
 C    0.044580325565   -5.166774829762   -0.517272089070
 H   -0.507176220851   -6.101831898679   -0.473311295687
 N    1.417651938742   -5.110522372736   -0.475111407540
 H    2.040903250497   -5.912829525346   -0.404116114270
 C    1.814968555566   -3.816376976106   -0.560932085572
 H    2.858911988462   -3.513444787929   -0.563154331810
