20

 C    0.071453587585    4.698371931733    0.414208727962
 H    0.623213587585    5.633431931733    0.370248727962
 C    0.483123587585    3.378301931733    0.528908727962
 H    1.502473587585    3.005441931733    0.611398727962
 N   -1.301606412415    4.642111931733    0.372048727962
 H   -1.924866412415    5.444421931733    0.301058727962
 C   -1.698926412415    3.347971931733    0.457868727962
 H   -2.742866412415    3.045041931733    0.460098727962
 N   -0.626896412415    2.530491931733    0.556788727962
NA   -0.267436412415    0.616841931733    1.917408727962
NA   -0.163156412415    1.121261931733   -1.534971272038
 N    0.772392203292   -3.117792999463   -0.686014817335
 C   -0.337624182142   -3.965601455548   -0.658135313082
 H   -1.356979071869   -3.592733677497   -0.740625072937
 C    0.074036005325   -5.285673869073   -0.543433684916
 H   -0.477720541091   -6.220730937991   -0.499472891533
 N    1.447107618502   -5.229421412048   -0.501273003386
 H    2.070358930257   -6.031728564658   -0.430277710116
 C    1.844424235326   -3.935276015418   -0.587093681418
 H    2.888367668222   -3.632343827240   -0.589315927656
