20

 C    0.053876476121    4.769322651050    0.429820158083
 H    0.605636476121    5.704382651050    0.385860158083
 C    0.465546476121    3.449252651050    0.544520158083
 H    1.484896476121    3.076392651050    0.627010158083
 N   -1.319183523879    4.713062651050    0.387660158083
 H   -1.942443523879    5.515372651050    0.316670158083
 C   -1.716503523879    3.418922651050    0.473480158083
 H   -2.760443523879    3.115992651050    0.475710158083
 N   -0.644473523879    2.601442651050    0.572400158083
NA   -0.285013523879    0.687792651050    1.933020158083
NA   -0.180733523879    1.192212651050   -1.519359841917
 N    0.801847883053   -3.236692038775   -0.712176413180
 C   -0.308168502382   -4.084500494860   -0.684296908927
 H   -1.327523392109   -3.711632716809   -0.766786668783
 C    0.103491685085   -5.404572908385   -0.569595280761
 H   -0.448264861331   -6.339629977302   -0.525634487378
 N    1.476563298262   -5.348320451360   -0.527434599231
 H    2.099814610017   -6.150627603969   -0.456439305961
 C    1.873879915086   -4.054175054730   -0.613255277263
 H    2.917823347982   -3.751242866552   -0.615477523501
