20

 C   -0.016431969735    5.053125528317    0.492265878568
 H    0.535328030265    5.988185528317    0.448305878568
 C    0.395238030265    3.733055528317    0.606965878568
 H    1.414588030265    3.360195528317    0.689455878568
 N   -1.389491969735    4.996865528317    0.450105878568
 H   -2.012751969735    5.799175528317    0.379115878568
 C   -1.786811969735    3.702725528317    0.535925878568
 H   -2.830751969735    3.399795528317    0.538155878568
 N   -0.714781969735    2.885245528317    0.634845878568
NA   -0.355321969735    0.971595528317    1.995465878568
NA   -0.251041969735    1.476015528317   -1.456914121432
 N    0.919670602093   -3.712288196022   -0.816822796561
 C   -0.190345783341   -4.560096652107   -0.788943292308
 H   -1.209700673068   -4.187228874056   -0.871433052164
 C    0.221314404126   -5.880169065632   -0.674241664142
 H   -0.330442142290   -6.815226134550   -0.630280870759
 N    1.594386017303   -5.823916608607   -0.632080982612
 H    2.217637329058   -6.626223761217   -0.561085689342
 C    1.991702634127   -4.529771211977   -0.717901660644
 H    3.035646067023   -4.226839023799   -0.720123906882
