20

 C   -0.051586192663    5.195026966950    0.523488738810
 H    0.500173807337    6.130086966950    0.479528738810
 C    0.360083807337    3.874956966950    0.638188738810
 H    1.379433807337    3.502096966950    0.720678738810
 N   -1.424646192663    5.138766966950    0.481328738810
 H   -2.047906192663    5.941076966950    0.410338738810
 C   -1.821966192663    3.844626966950    0.567148738810
 H   -2.865906192663    3.541696966950    0.569378738810
 N   -0.749936192663    3.027146966950    0.666068738810
NA   -0.390476192663    1.113496966950    2.026688738810
NA   -0.286196192663    1.617916966950   -1.425691261190
 N    0.978581961614   -3.950086274646   -0.869145988252
 C   -0.131434423821   -4.797894730731   -0.841266483999
 H   -1.150789313548   -4.425026952680   -0.923756243854
 C    0.280225763646   -6.117967144256   -0.726564855833
 H   -0.271530782770   -7.053024213173   -0.682604062450
 N    1.653297376823   -6.061714687230   -0.684404174303
 H    2.276548688578   -6.864021839840   -0.613408881033
 C    2.050613993647   -4.767569290601   -0.770224852335
 H    3.094557426543   -4.464637102423   -0.772447098573
