20

 C   -0.069163304127    5.265977686267    0.539100168931
 H    0.482596695873    6.201037686267    0.495140168931
 C    0.342506695873    3.945907686267    0.653800168931
 H    1.361856695873    3.573047686267    0.736290168931
 N   -1.442223304127    5.209717686267    0.496940168931
 H   -2.065483304127    6.012027686267    0.425950168931
 C   -1.839543304127    3.915577686267    0.582760168931
 H   -2.883483304127    3.612647686267    0.584990168931
 N   -0.767513304127    3.098097686267    0.681680168931
NA   -0.408053304127    1.184447686267    2.042300168931
NA   -0.303773304127    1.688867686267   -1.410079831069
 N    1.008037641374   -4.068985313957   -0.895307584097
 C   -0.101978744061   -4.916793770042   -0.867428079844
 H   -1.121333633788   -4.543925991991   -0.949917839700
 C    0.309681443407   -6.236866183568   -0.752726451678
 H   -0.242075103010   -7.171923252485   -0.708765658295
 N    1.682753056583   -6.180613726542   -0.710565770148
 H    2.306004368339   -6.982920879152   -0.639570476878
 C    2.080069673407   -4.886468329912   -0.796386448180
 H    3.124013106303   -4.583536141735   -0.798608694418
