20

 C   -0.077951859859    5.301453045925    0.546905883992
 H    0.473808140141    6.236513045925    0.502945883992
 C    0.333718140141    3.981383045925    0.661605883992
 H    1.353068140141    3.608523045925    0.744095883992
 N   -1.451011859859    5.245193045925    0.504745883992
 H   -2.074271859859    6.047503045925    0.433755883992
 C   -1.848331859859    3.951053045925    0.590565883992
 H   -2.892271859859    3.648123045925    0.592795883992
 N   -0.776301859859    3.133573045925    0.689485883992
NA   -0.416841859859    1.219923045925    2.050105883992
NA   -0.312561859859    1.724343045925   -1.402274116008
 N    1.022765481254   -4.128434833613   -0.908388382020
 C   -0.087250904181   -4.976243289698   -0.880508877767
 H   -1.106605793908   -4.603375511647   -0.962998637622
 C    0.324409283287   -6.296315703224   -0.765807249601
 H   -0.227347263129   -7.231372772141   -0.721846456218
 N    1.697480896463   -6.240063246198   -0.723646568071
 H    2.320732208219   -7.042370398808   -0.652651274801
 C    2.094797513287   -4.945917849568   -0.809467246103
 H    3.138740946184   -4.642985661390   -0.811689492341
