20

 C   -0.086740415591    5.336928405583    0.554711599053
 H    0.465019584409    6.271988405583    0.510751599053
 C    0.324929584409    4.016858405583    0.669411599053
 H    1.344279584409    3.643998405583    0.751901599053
 N   -1.459800415591    5.280668405583    0.512551599053
 H   -2.083060415591    6.082978405583    0.441561599053
 C   -1.857120415591    3.986528405583    0.598371599053
 H   -2.901060415591    3.683598405583    0.600601599053
 N   -0.785090415591    3.169048405583    0.697291599053
NA   -0.425630415591    1.255398405583    2.057911599053
NA   -0.321350415591    1.759818405583   -1.394468400947
 N    1.037493321134   -4.187884353269   -0.921469179942
 C   -0.072523064301   -5.035692809354   -0.893589675689
 H   -1.091877954028   -4.662825031303   -0.976079435545
 C    0.339137123167   -6.355765222879   -0.778888047523
 H   -0.212619423249   -7.290822291797   -0.734927254140
 N    1.712208736343   -6.299512765854   -0.736727365993
 H    2.335460048099   -7.101819918464   -0.665732072723
 C    2.109525353167   -5.005367369224   -0.822548044025
 H    3.153468786064   -4.702435181046   -0.824770290263
