20

 C   -0.121894638519    5.478829844216    0.585934459295
 H    0.429865361481    6.413889844216    0.541974459295
 C    0.289775361481    4.158759844216    0.700634459295
 H    1.309125361481    3.785899844216    0.783124459295
 N   -1.494954638519    5.422569844216    0.543774459295
 H   -2.118214638519    6.224879844216    0.472784459295
 C   -1.892274638519    4.128429844216    0.629594459295
 H   -2.936214638519    3.825499844216    0.631824459295
 N   -0.820244638519    3.310949844216    0.728514459295
NA   -0.460784638519    1.397299844216    2.089134459295
NA   -0.356504638519    1.901719844216   -1.363245540705
 N    1.096404680654   -4.425682431893   -0.973792371633
 C   -0.013611704780   -5.273490887978   -0.945912867380
 H   -1.032966594507   -4.900623109927   -1.028402627235
 C    0.398048482687   -6.593563301503   -0.831211239214
 H   -0.153708063729   -7.528620370420   -0.787250445831
 N    1.771120095864   -6.537310844477   -0.789050557684
 H    2.394371407619   -7.339617997087   -0.718055264414
 C    2.168436712688   -5.243165447848   -0.874871235716
 H    3.212380145584   -4.940233259670   -0.877093481954
