20

 C   -0.130683194251    5.514305203875    0.593740174356
 H    0.421076805749    6.449365203875    0.549780174356
 C    0.280986805749    4.194235203875    0.708440174356
 H    1.300336805749    3.821375203875    0.790930174356
 N   -1.503743194251    5.458045203875    0.551580174356
 H   -2.127003194251    6.260355203875    0.480590174356
 C   -1.901063194251    4.163905203875    0.637400174356
 H   -2.945003194251    3.860975203875    0.639630174356
 N   -0.829033194251    3.346425203875    0.736320174356
NA   -0.469573194251    1.432775203875    2.096940174356
NA   -0.365293194251    1.937195203875   -1.355439825644
 N    1.111132520534   -4.485131951549   -0.986873169556
 C    0.001116135100   -5.332940407634   -0.958993665303
 H   -1.018238754627   -4.960072629583   -1.041483425158
 C    0.412776322567   -6.653012821159   -0.844292037136
 H   -0.138980223849   -7.588069890076   -0.800331243754
 N    1.785847935744   -6.596760364133   -0.802131355606
 H    2.409099247499   -7.399067516743   -0.731136062337
 C    2.183164552568   -5.302614967504   -0.887952033638
 H    3.227107985464   -4.999682779326   -0.890174279876
