20

 C   -0.157048861447    5.620731282850    0.617157319538
 H    0.394711138553    6.555791282850    0.573197319538
 C    0.254621138553    4.300661282850    0.731857319538
 H    1.273971138553    3.927801282850    0.814347319538
 N   -1.530108861447    5.564471282850    0.574997319538
 H   -2.153368861447    6.366781282850    0.504007319538
 C   -1.927428861447    4.270331282850    0.660817319538
 H   -2.971368861447    3.967401282850    0.663047319538
 N   -0.855398861447    3.452851282850    0.759737319538
NA   -0.495938861447    1.539201282850    2.120357319538
NA   -0.391658861447    2.043621282850   -1.332022680462
 N    1.155316040175   -4.663480510516   -1.026115563324
 C    0.045299654740   -5.511288966601   -0.998236059070
 H   -0.974055234987   -5.138421188550   -1.080725818926
 C    0.456959842207   -6.831361380127   -0.883534430904
 H   -0.094796704209   -7.766418449044   -0.839573637522
 N    1.830031455384   -6.775108923101   -0.841373749374
 H    2.453282767139   -7.577416075711   -0.770378456104
 C    2.227348072208   -5.480963526471   -0.927194427406
 H    3.271291505104   -5.178031338293   -0.929416673644
