20

 C   -0.227357307303    5.904534160116    0.679603040022
 H    0.324402692697    6.839594160116    0.635643040022
 C    0.184312692697    4.584464160116    0.794303040022
 H    1.203662692697    4.211604160116    0.876793040022
 N   -1.600417307303    5.848274160116    0.637443040022
 H   -2.223677307303    6.650584160116    0.566453040022
 C   -1.997737307303    4.554134160116    0.723263040022
 H   -3.041677307303    4.251204160116    0.725493040022
 N   -0.925707307303    3.736654160116    0.822183040022
NA   -0.566247307303    1.823004160116    2.182803040022
NA   -0.461967307303    2.327424160116   -1.269576959978
 N    1.273138759215   -5.139076667763   -1.130761946705
 C    0.163122373781   -5.986885123848   -1.102882442452
 H   -0.856232515946   -5.614017345797   -1.185372202307
 C    0.574782561248   -7.306957537374   -0.988180814286
 H    0.023026014832   -8.242014606291   -0.944220020903
 N    1.947854174425   -7.250705080348   -0.946020132756
 H    2.571105486180   -8.053012232958   -0.875024839486
 C    2.345170791249   -5.956559683718   -1.031840810788
 H    3.389114224145   -5.653627495541   -1.034063057026
