20

 C   -0.236145863035    5.940009519775    0.687408755083
 H    0.315614136965    6.875069519775    0.643448755083
 C    0.175524136965    4.619939519775    0.802108755083
 H    1.194874136965    4.247079519775    0.884598755083
 N   -1.609205863035    5.883749519775    0.645248755083
 H   -2.232465863035    6.686059519775    0.574258755083
 C   -2.006525863035    4.589609519775    0.731068755083
 H   -3.050465863035    4.286679519775    0.733298755083
 N   -0.934495863035    3.772129519775    0.829988755083
NA   -0.575035863035    1.858479519775    2.190608755083
NA   -0.470755863035    2.362899519775   -1.261771244917
 N    1.287866599095   -5.198526187419   -1.143842744627
 C    0.177850213661   -6.046334643504   -1.115963240374
 H   -0.841504676066   -5.673466865453   -1.198453000230
 C    0.589510401128   -7.366407057030   -1.001261612208
 H    0.037753854712   -8.301464125947   -0.957300818825
 N    1.962582014305   -7.310154600004   -0.959100930678
 H    2.585833326060   -8.112461752614   -0.888105637408
 C    2.359898631129   -6.016009203374   -1.044921608710
 H    3.403842064025   -5.713077015196   -1.047143854948
