20

 C   -0.271300085963    6.081910958408    0.718631615325
 H    0.280459914037    7.016970958408    0.674671615325
 C    0.140369914037    4.761840958408    0.833331615325
 H    1.159719914038    4.388980958408    0.915821615325
 N   -1.644360085963    6.025650958408    0.676471615325
 H   -2.267620085963    6.827960958408    0.605481615325
 C   -2.041680085963    4.731510958408    0.762291615325
 H   -3.085620085963    4.428580958408    0.764521615325
 N   -0.969650085963    3.914030958408    0.861211615325
NA   -0.610190085963    2.000380958408    2.221831615325
NA   -0.505910085963    2.504800958408   -1.230548384675
 N    1.346777958616   -5.436324266043   -1.196165936318
 C    0.236761573181   -6.284132722128   -1.168286432065
 H   -0.782593316546   -5.911264944077   -1.250776191920
 C    0.648421760649   -7.604205135653   -1.053584803899
 H    0.096665214232   -8.539262204570   -1.009624010516
 N    2.021493373825   -7.547952678628   -1.011424122369
 H    2.644744685581   -8.350259831237   -0.940428829099
 C    2.418809990649   -6.253807281998   -1.097244800401
 H    3.462753423545   -5.950875093820   -1.099467046639
