20

 C   -0.315242864622    6.259287756699    0.757660190628
 H    0.236517135378    7.194347756699    0.713700190628
 C    0.096427135378    4.939217756699    0.872360190628
 H    1.115777135378    4.566357756699    0.954850190628
 N   -1.688302864622    6.203027756699    0.715500190628
 H   -2.311562864622    7.005337756700    0.644510190628
 C   -2.085622864622    4.908887756699    0.801320190628
 H   -3.129562864622    4.605957756699    0.803550190628
 N   -1.013592864622    4.091407756699    0.900240190628
NA   -0.654132864622    2.177757756699    2.260860190628
NA   -0.549852864622    2.682177756699   -1.191519809372
 N    1.420417158016   -5.733571864322   -1.261569925931
 C    0.310400772581   -6.581380320407   -1.233690421678
 H   -0.708954117146   -6.208512542356   -1.316180181534
 C    0.722060960049   -7.901452733933   -1.118988793512
 H    0.170304413633   -8.836509802850   -1.075028000129
 N    2.095132573226   -7.845200276907   -1.076828111982
 H    2.718383884981   -8.647507429517   -1.005832818712
 C    2.492449190049   -6.551054880277   -1.162648790014
 H    3.536392622946   -6.248122692099   -1.164871036252
