20

 C   -0.332819976086    6.330238476016    0.773271620750
 H    0.218940023914    7.265298476016    0.729311620750
 C    0.078850023914    5.010168476016    0.887971620750
 H    1.098200023914    4.637308476016    0.970461620750
 N   -1.705879976086    6.273978476016    0.731111620750
 H   -2.329139976086    7.076288476016    0.660121620750
 C   -2.103199976086    4.979838476016    0.816931620750
 H   -3.147139976086    4.676908476016    0.819161620750
 N   -1.031169976086    4.162358476016    0.915851620750
NA   -0.671709976086    2.248708476016    2.276471620750
NA   -0.567429976086    2.753128476016   -1.175908379250
 N    1.449872837776   -5.852470903634   -1.287731521777
 C    0.339856452342   -6.700279359719   -1.259852017523
 H   -0.679498437385   -6.327411581668   -1.342341777379
 C    0.751516639809   -8.020351773244   -1.145150389357
 H    0.199760093393   -8.955408842161   -1.101189595975
 N    2.124588252986   -7.964099316219   -1.102989707827
 H    2.747839564741   -8.766406468828   -1.031994414557
 C    2.521904869810   -6.669953919589   -1.188810385859
 H    3.565848302706   -6.367021731411   -1.191032632097
