20

 C   -0.350397087550    6.401189195333    0.788883050871
 H    0.201362912450    7.336249195333    0.744923050871
 C    0.061272912450    5.081119195333    0.903583050871
 H    1.080622912450    4.708259195333    0.986073050871
 N   -1.723457087550    6.344929195333    0.746723050871
 H   -2.346717087550    7.147239195333    0.675733050871
 C   -2.120777087550    5.050789195333    0.832543050871
 H   -3.164717087550    4.747859195333    0.834773050871
 N   -1.048747087550    4.233309195333    0.931463050871
NA   -0.689287087550    2.319659195333    2.292083050871
NA   -0.585007087550    2.824079195333   -1.160296949129
 N    1.479328517536   -5.971369942946   -1.313893117622
 C    0.369312132102   -6.819178399031   -1.286013613369
 H   -0.650042757625   -6.446310620980   -1.368503373224
 C    0.780972319569   -8.139250812556   -1.171311985203
 H    0.229215773153   -9.074307881473   -1.127351191820
 N    2.154043932746   -8.082998355531   -1.129151303673
 H    2.777295244501   -8.885305508140   -1.058156010403
 C    2.551360549570   -6.788852958901   -1.214971981705
 H    3.595303982466   -6.485920770723   -1.217194227943
