20

 C   -0.367974199014    6.472139914649    0.804494480992
 H    0.183785800986    7.407199914649    0.760534480992
 C    0.043695800986    5.152069914649    0.919194480992
 H    1.063045800986    4.779209914649    1.001684480992
 N   -1.741034199014    6.415879914649    0.762334480992
 H   -2.364294199014    7.218189914649    0.691344480992
 C   -2.138354199014    5.121739914649    0.848154480992
 H   -3.182294199014    4.818809914649    0.850384480992
 N   -1.066324199014    4.304259914649    0.947074480992
NA   -0.706864199014    2.390609914649    2.307694480992
NA   -0.602584199014    2.895029914649   -1.144685519008
 N    1.508784197297   -6.090268982258   -1.340054713467
 C    0.398767811862   -6.938077438343   -1.312175209214
 H   -0.620587077865   -6.565209660292   -1.394664969070
 C    0.810427999329   -8.258149851868   -1.197473581048
 H    0.258671452913   -9.193206920785   -1.153512787665
 N    2.183499612506   -8.201897394842   -1.155312899518
 H    2.806750924261   -9.004204547452   -1.084317606248
 C    2.580816229330   -6.907751998213   -1.241133577550
 H    3.624759662226   -6.604819810035   -1.243355823788
