20

 C   -0.403128421942    6.614041353283    0.835717341234
 H    0.148631578058    7.549101353283    0.791757341234
 C    0.008541578058    5.293971353283    0.950417341234
 H    1.027891578058    4.921111353283    1.032907341234
 N   -1.776188421942    6.557781353283    0.793557341234
 H   -2.399448421942    7.360091353283    0.722567341234
 C   -2.173508421942    5.263641353283    0.879377341234
 H   -3.217448421942    4.960711353283    0.881607341234
 N   -1.101478421942    4.446161353283    0.978297341234
NA   -0.742018421942    2.532511353283    2.338917341234
NA   -0.637738421942    3.036931353283   -1.113462658766
 N    1.567695556817   -6.328067060881   -1.392377905158
 C    0.457679171382   -7.175875516966   -1.364498400905
 H   -0.561675718345   -6.803007738915   -1.446988160760
 C    0.869339358850   -8.495947930491   -1.249796772739
 H    0.317582812434   -9.431004999409   -1.205835979356
 N    2.242410972026   -8.439695473466   -1.207636091208
 H    2.865662283782   -9.242002626076   -1.136640797939
 C    2.639727588850   -7.145550076836   -1.293456769241
 H    3.683671021747   -6.842617888658   -1.295679015479
