20

 C   -0.411916977674    6.649516712941    0.843523056295
 H    0.139843022326    7.584576712941    0.799563056295
 C   -0.000246977674    5.329446712941    0.958223056295
 H    1.019103022326    4.956586712941    1.040713056295
 N   -1.784976977674    6.593256712941    0.801363056295
 H   -2.408236977674    7.395566712941    0.730373056295
 C   -2.182296977674    5.299116712941    0.887183056295
 H   -3.226236977674    4.996186712941    0.889413056295
 N   -1.110266977674    4.481636712941    0.986103056295
NA   -0.750806977674    2.567986712941    2.346723056295
NA   -0.646526977674    3.072406712941   -1.105656943705
 N    1.582423396697   -6.387516580537   -1.405458703080
 C    0.472407011262   -7.235325036622   -1.377579198827
 H   -0.546947878465   -6.862457258571   -1.460068958683
 C    0.884067198730   -8.555397450147   -1.262877570661
 H    0.332310652314   -9.490454519064   -1.218916777278
 N    2.257138811906   -8.499144993122   -1.220716889131
 H    2.880390123662   -9.301452145731   -1.149721595861
 C    2.654455428730   -7.204999596492   -1.306537567163
 H    3.698398861627   -6.902067408314   -1.308759813401
