20

 C   -0.420705533406    6.684992072599    0.851328771356
 H    0.131054466594    7.620052072599    0.807368771356
 C   -0.009035533406    5.364922072599    0.966028771356
 H    1.010314466594    4.992062072599    1.048518771356
 N   -1.793765533406    6.628732072599    0.809168771356
 H   -2.417025533406    7.431042072599    0.738178771356
 C   -2.191085533406    5.334592072599    0.894988771356
 H   -3.235025533406    5.031662072599    0.897218771356
 N   -1.119055533406    4.517112072599    0.993908771356
NA   -0.759595533406    2.603462072599    2.354528771356
NA   -0.655315533406    3.107882072599   -1.097851228644
 N    1.597151236577   -6.446966100193   -1.418539501003
 C    0.487134851142   -7.294774556278   -1.390659996750
 H   -0.532220038585   -6.921906778227   -1.473149756605
 C    0.898795038610   -8.614846969803   -1.275958368584
 H    0.347038492194   -9.549904038720   -1.231997575201
 N    2.271866651787   -8.558594512778   -1.233797687054
 H    2.895117963542   -9.360901665387   -1.162802393784
 C    2.669183268610   -7.264449116148   -1.319618365086
 H    3.713126701507   -6.961516927970   -1.321840611324
