8

 N    0.578794524552   -1.446090323939   -0.812005698497
 H    0.174145524552   -0.627481323939   -0.362709698497
 H    0.174145524552   -2.264699323939   -0.362709698497
 C    2.039232524552   -1.446090323939   -0.673968698497
 H    2.438335524552   -2.328031323939   -1.180357698497
 H    2.407913524552   -1.446090323939    0.361861301503
 H    2.438335524552   -0.564149323939   -1.180357698497
CS   -0.302984530594    0.337757580181    0.167064563288
