8

 N    0.675491831875   -1.641709949962   -0.919372115790
 H    0.270842831875   -0.823100949962   -0.470076115790
 H    0.270842831875   -2.460318949962   -0.470076115790
 C    2.135929831875   -1.641709949962   -0.781335115790
 H    2.535032831875   -2.523650949962   -1.287724115790
 H    2.504610831875   -1.641709949962    0.254494884210
 H    2.535032831875   -0.759768949962   -1.287724115790
CS   -0.325569737058    0.383447680188    0.192141711442
