8

 N    0.739956703424   -1.772123033976   -0.990949727318
 H    0.335307703424   -0.953514033976   -0.541653727318
 H    0.335307703424   -2.590732033976   -0.541653727318
 C    2.200394703424   -1.772123033976   -0.852912727318
 H    2.599497703424   -2.654064033976   -1.359301727318
 H    2.569075703424   -1.772123033976    0.182917272682
 H    2.599497703424   -0.890182033976   -1.359301727318
CS   -0.340626541367    0.413907746860    0.208859810211
