8

 N    0.804421574972   -1.902536117991   -1.062527338846
 H    0.399772574972   -1.083927117991   -0.613231338846
 H    0.399772574972   -2.721145117991   -0.613231338846
 C    2.264859574972   -1.902536117991   -0.924490338846
 H    2.663962574972   -2.784477117991   -1.430879338846
 H    2.633540574972   -1.902536117991    0.111339661154
 H    2.663962574972   -1.020595117991   -1.430879338846
CS   -0.355683345676    0.444367813532    0.225577908980
