8

 N    0.933351318069   -2.163362286021   -1.205682561902
 H    0.528702318069   -1.344753286021   -0.756386561902
 H    0.528702318069   -2.981971286021   -0.756386561902
 C    2.393789318069   -2.163362286021   -1.067645561902
 H    2.792892318069   -3.045303286021   -1.574034561902
 H    2.762470318069   -2.163362286021   -0.031815561902
 H    2.792892318069   -1.281421286021   -1.574034561902
CS   -0.385796954294    0.505287946876    0.259014106519
