8

 N    0.965583753843   -2.228568828028   -1.241471367667
 H    0.560934753843   -1.409959828028   -0.792175367667
 H    0.560934753843   -3.047177828028   -0.792175367667
 C    2.426021753843   -2.228568828028   -1.103434367667
 H    2.825124753843   -3.110509828028   -1.609823367667
 H    2.794702753843   -2.228568828028   -0.067604367667
 H    2.825124753843   -1.346627828028   -1.609823367667
CS   -0.393325356449    0.520517980212    0.267373155903
