8

 N    0.997816189618   -2.293775370035   -1.277260173431
 H    0.593167189618   -1.475166370035   -0.827964173431
 H    0.593167189618   -3.112384370035   -0.827964173431
 C    2.458254189618   -2.293775370035   -1.139223173431
 H    2.857357189618   -3.175716370035   -1.645612173431
 H    2.826935189618   -2.293775370035   -0.103393173431
 H    2.857357189618   -1.411834370035   -1.645612173431
CS   -0.400853758604    0.535748013548    0.275732205288
