8

 N    1.094513496941   -2.489394996058   -1.384626590723
 H    0.689864496941   -1.670785996058   -0.935330590723
 H    0.689864496941   -3.308003996058   -0.935330590723
 C    2.554951496941   -2.489394996058   -1.246589590723
 H    2.954054496941   -3.371335996058   -1.752978590723
 H    2.923632496941   -2.489394996058   -0.210759590723
 H    2.954054496941   -1.607453996058   -1.752978590723
CS   -0.423438965067    0.581438113555    0.300809353442
