8

 N    1.126745932715   -2.554601538065   -1.420415396487
 H    0.722096932715   -1.735992538065   -0.971119396487
 H    0.722096932715   -3.373210538065   -0.971119396487
 C    2.587183932715   -2.554601538065   -1.282378396487
 H    2.986286932715   -3.436542538065   -1.788767396487
 H    2.955864932715   -2.554601538065   -0.246548396487
 H    2.986286932715   -1.672660538065   -1.788767396487
CS   -0.430967367222    0.596668146891    0.309168402826
