8

 N    1.416837854683   -3.141460416132   -1.742514648364
 H    1.012188854683   -2.322851416132   -1.293218648364
 H    1.012188854683   -3.960069416132   -1.293218648364
 C    2.877275854683   -3.141460416132   -1.604477648364
 H    3.276378854683   -4.023401416132   -2.110866648364
 H    3.245956854683   -3.141460416132   -0.568647648364
 H    3.276378854683   -2.259519416132   -2.110866648364
CS   -0.498722986613    0.733738446915    0.384399847288
