8

 N    1.642464905103   -3.597906210183   -1.993036288713
 H    1.237815905103   -2.779297210183   -1.543740288713
 H    1.237815905103   -4.416515210183   -1.543740288713
 C    3.102902905103   -3.597906210183   -1.854999288713
 H    3.502005905103   -4.479847210183   -2.361388288713
 H    3.471583905103   -3.597906210183   -0.819169288713
 H    3.502005905103   -2.715965210183   -2.361388288713
CS   -0.551421801695    0.840348680266    0.442913192980
