8

 N    1.706929776652   -3.728319294198   -2.064613900241
 H    1.302280776652   -2.909710294198   -1.615317900241
 H    1.302280776652   -4.546928294198   -1.615317900241
 C    3.167367776652   -3.728319294198   -1.926576900241
 H    3.566470776652   -4.610260294198   -2.432965900241
 H    3.536048776652   -3.728319294198   -0.890746900241
 H    3.566470776652   -2.846378294198   -2.432965900241
CS   -0.566478606004    0.870808746938    0.459631291749
