8

 N    1.739162212426   -3.793525836206   -2.100402706005
 H    1.334513212426   -2.974916836206   -1.651106706005
 H    1.334513212426   -4.612134836206   -1.651106706005
 C    3.199600212426   -3.793525836206   -1.962365706005
 H    3.598703212426   -4.675466836206   -2.468754706005
 H    3.568281212426   -3.793525836206   -0.926535706005
 H    3.598703212426   -2.911584836206   -2.468754706005
CS   -0.574007008159    0.886038780274    0.467990341134
