8

 N    1.835859519749   -3.989145462228   -2.207769123298
 H    1.431210519749   -3.170536462228   -1.758473123298
 H    1.431210519749   -4.807754462228   -1.758473123298
 C    3.296297519749   -3.989145462228   -2.069732123298
 H    3.695400519749   -4.871086462228   -2.576121123298
 H    3.664978519749   -3.989145462228   -1.033902123298
 H    3.695400519749   -3.107204462228   -2.576121123298
CS   -0.596592214622    0.931728880282    0.493067489288
