8

 N    1.900324391298   -4.119558546243   -2.279346734826
 H    1.495675391298   -3.300949546243   -1.830050734826
 H    1.495675391298   -4.938167546243   -1.830050734826
 C    3.360762391298   -4.119558546243   -2.141309734826
 H    3.759865391298   -5.001499546243   -2.647698734826
 H    3.729443391298   -4.119558546243   -1.105479734826
 H    3.759865391298   -3.237617546243   -2.647698734826
CS   -0.611649018931    0.962188946953    0.509785588057
