8

 N    1.932556827072   -4.184765088250   -2.315135540590
 H    1.527907827072   -3.366156088250   -1.865839540590
 H    1.527907827072   -5.003374088250   -1.865839540590
 C    3.392994827072   -4.184765088250   -2.177098540590
 H    3.792097827072   -5.066706088250   -2.683487540590
 H    3.761675827072   -4.184765088250   -1.141268540590
 H    3.792097827072   -3.302824088250   -2.683487540590
CS   -0.619177421086    0.977418980289    0.518144637442
