8

 N    2.029254134395   -4.380384714272   -2.422501957882
 H    1.624605134395   -3.561775714272   -1.973205957882
 H    1.624605134395   -5.198993714272   -1.973205957882
 C    3.489692134395   -4.380384714272   -2.284464957882
 H    3.888795134395   -5.262325714272   -2.790853957882
 H    3.858373134395   -4.380384714272   -1.248634957882
 H    3.888795134395   -3.498443714272   -2.790853957882
CS   -0.641762627550    1.023109080297    0.543221785596
