8

 N    2.061486570169   -4.445591256280   -2.458290763646
 H    1.656837570169   -3.626982256280   -2.008994763646
 H    1.656837570169   -5.264200256280   -2.008994763646
 C    3.521924570169   -4.445591256280   -2.320253763646
 H    3.921027570169   -5.327532256280   -2.826642763646
 H    3.890605570169   -4.445591256280   -1.284423763646
 H    3.921027570169   -3.563650256280   -2.826642763646
CS   -0.649291029704    1.038339113633    0.551580834980
