8

 N    2.093719005943   -4.510797798287   -2.494079569411
 H    1.689070005943   -3.692188798287   -2.044783569411
 H    1.689070005943   -5.329406798287   -2.044783569411
 C    3.554157005943   -4.510797798287   -2.356042569411
 H    3.953260005943   -5.392738798287   -2.862431569411
 H    3.922838005943   -4.510797798287   -1.320212569411
 H    3.953260005943   -3.628856798287   -2.862431569411
CS   -0.656819431859    1.053569146969    0.559939884365
