8

 N    2.158183877492   -4.641210882302   -2.565657180939
 H    1.753534877492   -3.822601882302   -2.116361180939
 H    1.753534877492   -5.459819882302   -2.116361180939
 C    3.618621877492   -4.641210882302   -2.427620180939
 H    4.017724877492   -5.523151882302   -2.934009180939
 H    3.987302877492   -4.641210882302   -1.391790180939
 H    4.017724877492   -3.759269882302   -2.934009180939
CS   -0.671876236168    1.084029213641    0.576657983134
