8

 N    2.190416313266   -4.706417424309   -2.601445986703
 H    1.785767313266   -3.887808424309   -2.152149986703
 H    1.785767313266   -5.525026424309   -2.152149986703
 C    3.650854313266   -4.706417424309   -2.463408986703
 H    4.049957313266   -5.588358424309   -2.969797986703
 H    4.019535313266   -4.706417424309   -1.427578986703
 H    4.049957313266   -3.824476424309   -2.969797986703
CS   -0.679404638323    1.099259246977    0.585017032519
