8

 N    2.254881184815   -4.836830508324   -2.673023598231
 H    1.850232184815   -4.018221508324   -2.223727598231
 H    1.850232184815   -5.655439508324   -2.223727598231
 C    3.715319184815   -4.836830508324   -2.534986598231
 H    4.114422184815   -5.718771508324   -3.041375598231
 H    4.084000184815   -4.836830508324   -1.499156598231
 H    4.114422184815   -3.954889508324   -3.041375598231
CS   -0.694461442632    1.129719313649    0.601735131288
