8

 N    2.287113620589   -4.902037050331   -2.708812403995
 H    1.882464620589   -4.083428050331   -2.259516403995
 H    1.882464620589   -5.720646050331   -2.259516403995
 C    3.747551620589   -4.902037050331   -2.570775403995
 H    4.146654620589   -5.783978050331   -3.077164403995
 H    4.116232620589   -4.902037050331   -1.534945403995
 H    4.146654620589   -4.020096050331   -3.077164403995
CS   -0.701989844786    1.144949346985    0.610094180673
