8

 N    2.319346056363   -4.967243592339   -2.744601209759
 H    1.914697056363   -4.148634592339   -2.295305209759
 H    1.914697056363   -5.785852592339   -2.295305209759
 C    3.779784056363   -4.967243592339   -2.606564209759
 H    4.178887056363   -5.849184592339   -3.112953209759
 H    4.148465056363   -4.967243592339   -1.570734209759
 H    4.178887056363   -4.085302592339   -3.112953209759
CS   -0.709518246941    1.160179380320    0.618453230057
