8

 N    2.383810927912   -5.097656676353   -2.816178821288
 H    1.979161927912   -4.279047676353   -2.366882821288
 H    1.979161927912   -5.916265676353   -2.366882821288
 C    3.844248927912   -5.097656676353   -2.678141821288
 H    4.243351927912   -5.979597676353   -3.184530821288
 H    4.212929927912   -5.097656676353   -1.642311821288
 H    4.243351927912   -4.215715676353   -3.184530821288
CS   -0.724575051250    1.190639446992    0.635171328827
