8

 N    2.512740671009   -5.358482844383   -2.959334044344
 H    2.108091671009   -4.539873844383   -2.510038044344
 H    2.108091671009   -6.177091844383   -2.510038044344
 C    3.973178671009   -5.358482844383   -2.821297044344
 H    4.372281671009   -6.240423844383   -3.327686044344
 H    4.341859671009   -5.358482844383   -1.785467044344
 H    4.372281671009   -4.476541844383   -3.327686044344
CS   -0.754688659868    1.251559580336    0.668607526365
