8

 N    2.641670414106   -5.619309012413   -3.102489267400
 H    2.237021414106   -4.800700012413   -2.653193267400
 H    2.237021414106   -6.437918012413   -2.653193267400
 C    4.102108414106   -5.619309012413   -2.964452267400
 H    4.501211414106   -6.501250012413   -3.470841267400
 H    4.470789414106   -5.619309012413   -1.928622267400
 H    4.501211414106   -4.737368012413   -3.470841267400
CS   -0.784802268486    1.312479713680    0.702043723904
