8

 N    2.770600157203   -5.880135180442   -3.245644490457
 H    2.365951157203   -5.061526180442   -2.796348490457
 H    2.365951157203   -6.698744180442   -2.796348490457
 C    4.231038157203   -5.880135180442   -3.107607490457
 H    4.630141157203   -6.762076180442   -3.613996490457
 H    4.599719157203   -5.880135180442   -2.071777490457
 H    4.630141157203   -4.998194180442   -3.613996490457
CS   -0.814915877105    1.373399847023    0.735479921442
