8

 N    2.835065028752   -6.010548264457   -3.317222101985
 H    2.430416028752   -5.191939264457   -2.867926101985
 H    2.430416028752   -6.829157264457   -2.867926101985
 C    4.295503028752   -6.010548264457   -3.179185101985
 H    4.694606028752   -6.892489264457   -3.685574101985
 H    4.664184028752   -6.010548264457   -2.143355101985
 H    4.694606028752   -5.128607264457   -3.685574101985
CS   -0.829972681414    1.403859913695    0.752198020211
