8

 N    2.963994771849   -6.271374432487   -3.460377325042
 H    2.559345771849   -5.452765432487   -3.011081325042
 H    2.559345771849   -7.089983432487   -3.011081325042
 C    4.424432771849   -6.271374432487   -3.322340325042
 H    4.823535771849   -7.153315432487   -3.828729325042
 H    4.793113771849   -6.271374432487   -2.286510325042
 H    4.823535771849   -5.389433432487   -3.828729325042
CS   -0.860086290032    1.464780047039    0.785634217750
