8

 N    2.996227207623   -6.336580974494   -3.496166130806
 H    2.591578207623   -5.517971974494   -3.046870130806
 H    2.591578207623   -7.155189974494   -3.046870130806
 C    4.456665207623   -6.336580974494   -3.358129130806
 H    4.855768207623   -7.218521974494   -3.864518130806
 H    4.825346207623   -6.336580974494   -2.322299130806
 H    4.855768207623   -5.454639974494   -3.864518130806
CS   -0.867614692187    1.480010080375    0.793993267134
