8

 N    3.125156950720   -6.597407142524   -3.639321353862
 H    2.720507950720   -5.778798142524   -3.190025353862
 H    2.720507950720   -7.416016142524   -3.190025353862
 C    4.585594950720   -6.597407142524   -3.501284353862
 H    4.984697950720   -7.479348142524   -4.007673353862
 H    4.954275950720   -6.597407142524   -2.465454353862
 H    4.984697950720   -5.715466142524   -4.007673353862
CS   -0.897728300805    1.540930213719    0.827429464673
