8

 N    3.157389386495   -6.662613684531   -3.675110159626
 H    2.752740386495   -5.844004684531   -3.225814159626
 H    2.752740386495   -7.481222684531   -3.225814159626
 C    4.617827386495   -6.662613684531   -3.537073159626
 H    5.016930386495   -7.544554684531   -4.043462159626
 H    4.986508386495   -6.662613684531   -2.501243159626
 H    5.016930386495   -5.780672684531   -4.043462159626
CS   -0.905256702960    1.556160247055    0.835788514058
