8

 N    3.189621822269   -6.727820226538   -3.710898965390
 H    2.784972822269   -5.909211226538   -3.261602965390
 H    2.784972822269   -7.546429226538   -3.261602965390
 C    4.650059822269   -6.727820226538   -3.572861965390
 H    5.049162822269   -7.609761226538   -4.079250965390
 H    5.018740822269   -6.727820226538   -2.537031965390
 H    5.049162822269   -5.845879226538   -4.079250965390
CS   -0.912785105114    1.571390280390    0.844147563442
