8

 N    3.383016436915   -7.119059478583   -3.925631799975
 H    2.978367436915   -6.300450478583   -3.476335799975
 H    2.978367436915   -7.937668478583   -3.476335799975
 C    4.843454436915   -7.119059478583   -3.787594799975
 H    5.242557436915   -8.001000478583   -4.293983799975
 H    5.212135436915   -7.119059478583   -2.751764799975
 H    5.242557436915   -6.237118478583   -4.293983799975
CS   -0.957955518042    1.662770480406    0.894301859750
