13

 C   -2.453309555714   -0.171600229179    0.000000000000
 H   -3.548827555714   -0.171600229179    0.000000000000
 C   -1.721842555714    1.038381770821    0.000000000000
 H   -2.259725555714    1.997000770821    0.000000000000
 C   -1.721842555714   -1.381583229179    0.000000000000
 H   -2.259724555714   -2.340202229179    0.000000000000
 C   -0.316672555714    1.043496770821    0.000000000000
 H    0.229957444286    1.995654770821    0.000000000000
 C   -0.316672555714   -1.386697229179    0.000000000000
 H    0.229957444286   -2.338854229179    0.000000000000
 C    0.478364444286   -0.171600229179    0.000000000000
 O    1.764711444286   -0.171600229179    0.000000000000
NA    2.264711444286    0.694425174606    0.000000000000
