13

 C   -2.463216905537   -0.188760262439    0.000000000000
 H   -3.558734905537   -0.188760262439    0.000000000000
 C   -1.731749905537    1.021221737561    0.000000000000
 H   -2.269632905537    1.979840737561    0.000000000000
 C   -1.731749905537   -1.398743262439    0.000000000000
 H   -2.269631905537   -2.357362262439    0.000000000000
 C   -0.326579905537    1.026336737561    0.000000000000
 H    0.220050094463    1.978494737561    0.000000000000
 C   -0.326579905537   -1.403857262439    0.000000000000
 H    0.220050094463   -2.356014262439    0.000000000000
 C    0.468457094463   -0.188760262439    0.000000000000
 O    1.754804094463   -0.188760262439    0.000000000000
NA    2.304804094463    0.763867681724    0.000000000000
