13

 C   -2.473124255359   -0.205920295700    0.000000000000
 H   -3.568642255359   -0.205920295700    0.000000000000
 C   -1.741657255359    1.004061704300    0.000000000000
 H   -2.279540255359    1.962680704300    0.000000000000
 C   -1.741657255359   -1.415903295700    0.000000000000
 H   -2.279539255359   -2.374522295700    0.000000000000
 C   -0.336487255359    1.009176704300    0.000000000000
 H    0.210142744641    1.961334704300    0.000000000000
 C   -0.336487255359   -1.421017295700    0.000000000000
 H    0.210142744641   -2.373174295700    0.000000000000
 C    0.458549744641   -0.205920295700    0.000000000000
 O    1.744896744641   -0.205920295700    0.000000000000
NA    2.344896744641    0.833310188841    0.000000000000
