13

 C   -2.483031605181   -0.223080328960    0.000000000000
 H   -3.578549605181   -0.223080328960    0.000000000000
 C   -1.751564605181    0.986901671040    0.000000000000
 H   -2.289447605181    1.945520671040    0.000000000000
 C   -1.751564605181   -1.433063328960    0.000000000000
 H   -2.289446605181   -2.391682328960    0.000000000000
 C   -0.346394605181    0.992016671040    0.000000000000
 H    0.200235394819    1.944174671040    0.000000000000
 C   -0.346394605181   -1.438177328960    0.000000000000
 H    0.200235394819   -2.390334328960    0.000000000000
 C    0.448642394819   -0.223080328960    0.000000000000
 O    1.734989394819   -0.223080328960    0.000000000000
NA    2.384989394819    0.902752695959    0.000000000000
