13

 C   -2.492938955003   -0.240240362221    0.000000000000
 H   -3.588456955003   -0.240240362221    0.000000000000
 C   -1.761471955003    0.969741637779    0.000000000000
 H   -2.299354955003    1.928360637779    0.000000000000
 C   -1.761471955003   -1.450223362221    0.000000000000
 H   -2.299353955003   -2.408842362221    0.000000000000
 C   -0.356301955003    0.974856637779    0.000000000000
 H    0.190328044997    1.927014637779    0.000000000000
 C   -0.356301955003   -1.455337362221    0.000000000000
 H    0.190328044997   -2.407494362221    0.000000000000
 C    0.438735044997   -0.240240362221    0.000000000000
 O    1.725082044997   -0.240240362221    0.000000000000
NA    2.425082044997    0.972195203077    0.000000000000
