13

 C   -2.532568354293   -0.308880495263    0.000000000000
 H   -3.628086354293   -0.308880495263    0.000000000000
 C   -1.801101354293    0.901101504737    0.000000000000
 H   -2.338984354293    1.859720504737    0.000000000000
 C   -1.801101354293   -1.518863495263    0.000000000000
 H   -2.338983354293   -2.477482495263    0.000000000000
 C   -0.395931354293    0.906216504737    0.000000000000
 H    0.150698645707    1.858374504737    0.000000000000
 C   -0.395931354293   -1.523977495263    0.000000000000
 H    0.150698645707   -2.476134495263    0.000000000000
 C    0.399105645707   -0.308880495263    0.000000000000
 O    1.685452645707   -0.308880495263    0.000000000000
NA    2.585452645707    1.249965231549    0.000000000000
