13

 C   -2.542475704115   -0.326040528524    0.000000000000
 H   -3.637993704115   -0.326040528524    0.000000000000
 C   -1.811008704115    0.883941471476    0.000000000000
 H   -2.348891704115    1.842560471476    0.000000000000
 C   -1.811008704115   -1.536023528524    0.000000000000
 H   -2.348890704115   -2.494642528524    0.000000000000
 C   -0.405838704115    0.889056471476    0.000000000000
 H    0.140791295885    1.841214471476    0.000000000000
 C   -0.405838704115   -1.541137528524    0.000000000000
 H    0.140791295885   -2.493294528524    0.000000000000
 C    0.389198295885   -0.326040528524    0.000000000000
 O    1.675545295885   -0.326040528524    0.000000000000
NA    2.625545295885    1.319407738666    0.000000000000
