13

 C   -2.562290403760   -0.360360595045    0.000000000000
 H   -3.657808403760   -0.360360595045    0.000000000000
 C   -1.830823403760    0.849621404955    0.000000000000
 H   -2.368706403760    1.808240404955    0.000000000000
 C   -1.830823403760   -1.570343595045    0.000000000000
 H   -2.368705403760   -2.528962595045    0.000000000000
 C   -0.425653403760    0.854736404955    0.000000000000
 H    0.120976596240    1.806894404955    0.000000000000
 C   -0.425653403760   -1.575457595045    0.000000000000
 H    0.120976596240   -2.527614595045    0.000000000000
 C    0.369383596240   -0.360360595045    0.000000000000
 O    1.655730596240   -0.360360595045    0.000000000000
NA    2.705730596240    1.458292752902    0.000000000000
