13

 C   -2.592012453226   -0.411840694827    0.000000000000
 H   -3.687530453226   -0.411840694827    0.000000000000
 C   -1.860545453226    0.798141305173    0.000000000000
 H   -2.398428453226    1.756760305173    0.000000000000
 C   -1.860545453226   -1.621823694827    0.000000000000
 H   -2.398427453226   -2.580442694827    0.000000000000
 C   -0.455375453226    0.803256305173    0.000000000000
 H    0.091254546774    1.755414305173    0.000000000000
 C   -0.455375453226   -1.626937694827    0.000000000000
 H    0.091254546774   -2.579094694827    0.000000000000
 C    0.339661546774   -0.411840694827    0.000000000000
 O    1.626008546774   -0.411840694827    0.000000000000
NA    2.826008546774    1.666620274256    0.000000000000
