13

 C   -2.611827152871   -0.446160761348    0.000000000000
 H   -3.707345152871   -0.446160761348    0.000000000000
 C   -1.880360152871    0.763821238652    0.000000000000
 H   -2.418243152871    1.722440238652    0.000000000000
 C   -1.880360152871   -1.656143761348    0.000000000000
 H   -2.418242152871   -2.614762761348    0.000000000000
 C   -0.475190152871    0.768936238652    0.000000000000
 H    0.071439847129    1.721094238652    0.000000000000
 C   -0.475190152871   -1.661257761348    0.000000000000
 H    0.071439847129   -2.613414761348    0.000000000000
 C    0.319846847129   -0.446160761348    0.000000000000
 O    1.606193847129   -0.446160761348    0.000000000000
NA    2.906193847129    1.805505288491    0.000000000000
