13

 C   -2.631641852516   -0.480480827869    0.000000000000
 H   -3.727159852516   -0.480480827869    0.000000000000
 C   -1.900174852516    0.729501172131    0.000000000000
 H   -2.438057852516    1.688120172131    0.000000000000
 C   -1.900174852516   -1.690463827869    0.000000000000
 H   -2.438056852516   -2.649082827869    0.000000000000
 C   -0.495004852516    0.734616172131    0.000000000000
 H    0.051625147484    1.686774172131    0.000000000000
 C   -0.495004852516   -1.695577827869    0.000000000000
 H    0.051625147484   -2.647734827869    0.000000000000
 C    0.300032147484   -0.480480827869    0.000000000000
 O    1.586379147484   -0.480480827869    0.000000000000
NA    2.986379147484    1.944390302727    0.000000000000
