13

 C   -2.641549202338   -0.497640861130    0.000000000000
 H   -3.737067202338   -0.497640861130    0.000000000000
 C   -1.910082202338    0.712341138870    0.000000000000
 H   -2.447965202338    1.670960138870    0.000000000000
 C   -1.910082202338   -1.707623861130    0.000000000000
 H   -2.447964202338   -2.666242861130    0.000000000000
 C   -0.504912202338    0.717456138870    0.000000000000
 H    0.041717797662    1.669614138870    0.000000000000
 C   -0.504912202338   -1.712737861130    0.000000000000
 H    0.041717797662   -2.664894861130    0.000000000000
 C    0.290124797662   -0.497640861130    0.000000000000
 O    1.576471797662   -0.497640861130    0.000000000000
NA    3.026471797662    2.013832809845    0.000000000000
