13

 C   -2.661363901983   -0.531960927651    0.000000000000
 H   -3.756881901983   -0.531960927651    0.000000000000
 C   -1.929896901983    0.678021072349    0.000000000000
 H   -2.467779901983    1.636640072349    0.000000000000
 C   -1.929896901983   -1.741943927651    0.000000000000
 H   -2.467778901983   -2.700562927651    0.000000000000
 C   -0.524726901983    0.683136072349    0.000000000000
 H    0.021903098017    1.635294072349    0.000000000000
 C   -0.524726901983   -1.747057927651    0.000000000000
 H    0.021903098017   -2.699214927651    0.000000000000
 C    0.270310098017   -0.531960927651    0.000000000000
 O    1.556657098017   -0.531960927651    0.000000000000
NA    3.106657098017    2.152717824081    0.000000000000
