13

 C   -2.681178601627   -0.566280994172    0.000000000000
 H   -3.776696601627   -0.566280994172    0.000000000000
 C   -1.949711601627    0.643701005828    0.000000000000
 H   -2.487594601627    1.602320005828    0.000000000000
 C   -1.949711601627   -1.776263994172    0.000000000000
 H   -2.487593601627   -2.734882994172    0.000000000000
 C   -0.544541601627    0.648816005828    0.000000000000
 H    0.002088398373    1.600974005828    0.000000000000
 C   -0.544541601627   -1.781377994172    0.000000000000
 H    0.002088398373   -2.733534994172    0.000000000000
 C    0.250495398373   -0.566280994172    0.000000000000
 O    1.536842398373   -0.566280994172    0.000000000000
NA    3.186842398373    2.291602838317    0.000000000000
