13

 C   -2.700993301272   -0.600601060693    0.000000000000
 H   -3.796511301272   -0.600601060693    0.000000000000
 C   -1.969526301272    0.609380939307    0.000000000000
 H   -2.507409301272    1.567999939307    0.000000000000
 C   -1.969526301272   -1.810584060693    0.000000000000
 H   -2.507408301272   -2.769203060693    0.000000000000
 C   -0.564356301272    0.614495939307    0.000000000000
 H   -0.017726301272    1.566653939307    0.000000000000
 C   -0.564356301272   -1.815698060693    0.000000000000
 H   -0.017726301272   -2.767855060693    0.000000000000
 C    0.230680698728   -0.600601060693    0.000000000000
 O    1.517027698728   -0.600601060693    0.000000000000
NA    3.267027698728    2.430487852552    0.000000000000
