13

 C   -2.730715350739   -0.652081160475    0.000000000000
 H   -3.826233350739   -0.652081160475    0.000000000000
 C   -1.999248350739    0.557900839525    0.000000000000
 H   -2.537131350739    1.516519839525    0.000000000000
 C   -1.999248350739   -1.862064160475    0.000000000000
 H   -2.537130350739   -2.820683160475    0.000000000000
 C   -0.594078350739    0.563015839525    0.000000000000
 H   -0.047448350739    1.515173839525    0.000000000000
 C   -0.594078350739   -1.867178160475    0.000000000000
 H   -0.047448350739   -2.819335160475    0.000000000000
 C    0.200958649261   -0.652081160475    0.000000000000
 O    1.487305649261   -0.652081160475    0.000000000000
NA    3.387305649261    2.638815373906    0.000000000000
