13

 C   -2.740622700561   -0.669241193736    0.000000000000
 H   -3.836140700561   -0.669241193736    0.000000000000
 C   -2.009155700561    0.540740806264    0.000000000000
 H   -2.547038700561    1.499359806264    0.000000000000
 C   -2.009155700561   -1.879224193736    0.000000000000
 H   -2.547037700561   -2.837843193736    0.000000000000
 C   -0.603985700561    0.545855806264    0.000000000000
 H   -0.057355700561    1.498013806264    0.000000000000
 C   -0.603985700561   -1.884338193736    0.000000000000
 H   -0.057355700561   -2.836495193736    0.000000000000
 C    0.191051299439   -0.669241193736    0.000000000000
 O    1.477398299439   -0.669241193736    0.000000000000
NA    3.427398299439    2.708257881024    0.000000000000
