13

 C   -2.770344750028   -0.720721293517    0.000000000000
 H   -3.865862750028   -0.720721293517    0.000000000000
 C   -2.038877750028    0.489260706483    0.000000000000
 H   -2.576760750028    1.447879706483    0.000000000000
 C   -2.038877750028   -1.930704293517    0.000000000000
 H   -2.576759750028   -2.889323293517    0.000000000000
 C   -0.633707750028    0.494375706483    0.000000000000
 H   -0.087077750028    1.446533706483    0.000000000000
 C   -0.633707750028   -1.935818293517    0.000000000000
 H   -0.087077750028   -2.887975293517    0.000000000000
 C    0.161329249972   -0.720721293517    0.000000000000
 O    1.447676249972   -0.720721293517    0.000000000000
NA    3.547676249972    2.916585402377    0.000000000000
