13

 C   -2.790159449672   -0.755041360038    0.000000000000
 H   -3.885677449672   -0.755041360038    0.000000000000
 C   -2.058692449672    0.454940639962    0.000000000000
 H   -2.596575449672    1.413559639962    0.000000000000
 C   -2.058692449672   -1.965024360038    0.000000000000
 H   -2.596574449672   -2.923643360038    0.000000000000
 C   -0.653522449672    0.460055639962    0.000000000000
 H   -0.106892449672    1.412213639962    0.000000000000
 C   -0.653522449672   -1.970138360038    0.000000000000
 H   -0.106892449672   -2.922295360038    0.000000000000
 C    0.141514550328   -0.755041360038    0.000000000000
 O    1.427861550328   -0.755041360038    0.000000000000
NA    3.627861550328    3.055470416613    0.000000000000
