13

 C   -2.800066799495   -0.772201393299    0.000000000000
 H   -3.895584799495   -0.772201393299    0.000000000000
 C   -2.068599799495    0.437780606701    0.000000000000
 H   -2.606482799495    1.396399606701    0.000000000000
 C   -2.068599799495   -1.982184393299    0.000000000000
 H   -2.606481799495   -2.940803393299    0.000000000000
 C   -0.663429799495    0.442895606701    0.000000000000
 H   -0.116799799495    1.395053606701    0.000000000000
 C   -0.663429799495   -1.987298393299    0.000000000000
 H   -0.116799799495   -2.939455393299    0.000000000000
 C    0.131607200505   -0.772201393299    0.000000000000
 O    1.417954200505   -0.772201393299    0.000000000000
NA    3.667954200505    3.124912923731    0.000000000000
