13

 C   -2.809974149317   -0.789361426560    0.000000000000
 H   -3.905492149317   -0.789361426560    0.000000000000
 C   -2.078507149317    0.420620573440    0.000000000000
 H   -2.616390149317    1.379239573440    0.000000000000
 C   -2.078507149317   -1.999344426560    0.000000000000
 H   -2.616389149317   -2.957963426560    0.000000000000
 C   -0.673337149317    0.425735573440    0.000000000000
 H   -0.126707149317    1.377893573440    0.000000000000
 C   -0.673337149317   -2.004458426560    0.000000000000
 H   -0.126707149317   -2.956615426560    0.000000000000
 C    0.121699850683   -0.789361426560    0.000000000000
 O    1.408046850683   -0.789361426560    0.000000000000
NA    3.708046850683    3.194355430849    0.000000000000
