13

 C   -2.918954997362   -0.978121792426    0.000000000000
 H   -4.014472997362   -0.978121792426    0.000000000000
 C   -2.187487997362    0.231860207574    0.000000000000
 H   -2.725370997362    1.190479207574    0.000000000000
 C   -2.187487997362   -2.188104792426    0.000000000000
 H   -2.725369997362   -3.146723792426    0.000000000000
 C   -0.782317997362    0.236975207574    0.000000000000
 H   -0.235687997362    1.189133207574    0.000000000000
 C   -0.782317997362   -2.193218792426    0.000000000000
 H   -0.235687997362   -3.145375792426    0.000000000000
 C    0.012719002638   -0.978121792426    0.000000000000
 O    1.299066002638   -0.978121792426    0.000000000000
NA    4.149066002638    3.958223009145    0.000000000000
