13

 C   -2.998213795941   -1.115402058511    0.000000000000
 H   -4.093731795941   -1.115402058511    0.000000000000
 C   -2.266746795941    0.094579941489    0.000000000000
 H   -2.804629795941    1.053198941489    0.000000000000
 C   -2.266746795941   -2.325385058511    0.000000000000
 H   -2.804628795941   -3.284004058511    0.000000000000
 C   -0.861576795941    0.099694941489    0.000000000000
 H   -0.314946795941    1.051852941489    0.000000000000
 C   -0.861576795941   -2.330499058511    0.000000000000
 H   -0.314946795941   -3.282656058511    0.000000000000
 C   -0.066539795941   -1.115402058511    0.000000000000
 O    1.219807204059   -1.115402058511    0.000000000000
NA    4.469807204059    4.513763066088    0.000000000000
