13

 C   -3.008121145763   -1.132562091771    0.000000000000
 H   -4.103639145763   -1.132562091771    0.000000000000
 C   -2.276654145763    0.077419908229    0.000000000000
 H   -2.814537145763    1.036038908229    0.000000000000
 C   -2.276654145763   -2.342545091771    0.000000000000
 H   -2.814536145763   -3.301164091771    0.000000000000
 C   -0.871484145763    0.082534908229    0.000000000000
 H   -0.324854145763    1.034692908229    0.000000000000
 C   -0.871484145763   -2.347659091771    0.000000000000
 H   -0.324854145763   -3.299816091771    0.000000000000
 C   -0.076447145763   -1.132562091771    0.000000000000
 O    1.209899854237   -1.132562091771    0.000000000000
NA    4.509899854237    4.583205573206    0.000000000000
