13

 C   -3.037843195230   -1.184042191553    0.000000000000
 H   -4.133361195230   -1.184042191553    0.000000000000
 C   -2.306376195230    0.025939808447    0.000000000000
 H   -2.844259195230    0.984558808447    0.000000000000
 C   -2.306376195230   -2.394025191553    0.000000000000
 H   -2.844258195230   -3.352644191553    0.000000000000
 C   -0.901206195230    0.031054808447    0.000000000000
 H   -0.354576195230    0.983212808447    0.000000000000
 C   -0.901206195230   -2.399139191553    0.000000000000
 H   -0.354576195230   -3.351296191553    0.000000000000
 C   -0.106169195230   -1.184042191553    0.000000000000
 O    1.180177804770   -1.184042191553    0.000000000000
NA    4.630177804770    4.791533094560    0.000000000000
