13

 C   -3.067565244697   -1.235522291335    0.000000000000
 H   -4.163083244697   -1.235522291335    0.000000000000
 C   -2.336098244697   -0.025540291335    0.000000000000
 H   -2.873981244697    0.933078708665    0.000000000000
 C   -2.336098244697   -2.445505291335    0.000000000000
 H   -2.873980244697   -3.404124291335    0.000000000000
 C   -0.930928244697   -0.020425291335    0.000000000000
 H   -0.384298244697    0.931732708665    0.000000000000
 C   -0.930928244697   -2.450619291335    0.000000000000
 H   -0.384298244697   -3.402776291335    0.000000000000
 C   -0.135891244697   -1.235522291335    0.000000000000
 O    1.150455755303   -1.235522291335    0.000000000000
NA    4.750455755303    4.999860615913    0.000000000000
