13

 C   -3.107194643986   -1.304162424377    0.000000000000
 H   -4.202712643986   -1.304162424377    0.000000000000
 C   -2.375727643986   -0.094180424377    0.000000000000
 H   -2.913610643986    0.864438575623    0.000000000000
 C   -2.375727643986   -2.514145424377    0.000000000000
 H   -2.913609643986   -3.472764424377    0.000000000000
 C   -0.970557643986   -0.089065424377    0.000000000000
 H   -0.423927643986    0.863092575623    0.000000000000
 C   -0.970557643986   -2.519259424377    0.000000000000
 H   -0.423927643986   -3.471416424377    0.000000000000
 C   -0.175520643986   -1.304162424377    0.000000000000
 O    1.110826356014   -1.304162424377    0.000000000000
NA    4.910826356014    5.277630644385    0.000000000000
