13

 C   -3.117101993808   -1.321322457638    0.000000000000
 H   -4.212619993808   -1.321322457638    0.000000000000
 C   -2.385634993808   -0.111340457638    0.000000000000
 H   -2.923517993808    0.847278542362    0.000000000000
 C   -2.385634993808   -2.531305457638    0.000000000000
 H   -2.923516993808   -3.489924457638    0.000000000000
 C   -0.980464993808   -0.106225457638    0.000000000000
 H   -0.433834993808    0.845932542362    0.000000000000
 C   -0.980464993808   -2.536419457638    0.000000000000
 H   -0.433834993808   -3.488576457638    0.000000000000
 C   -0.185427993808   -1.321322457638    0.000000000000
 O    1.100919006192   -1.321322457638    0.000000000000
NA    4.950919006192    5.347073151503    0.000000000000
