13

 C   -3.136916693453   -1.355642524159    0.000000000000
 H   -4.232434693453   -1.355642524159    0.000000000000
 C   -2.405449693453   -0.145660524159    0.000000000000
 H   -2.943332693453    0.812958475841    0.000000000000
 C   -2.405449693453   -2.565625524159    0.000000000000
 H   -2.943331693453   -3.524244524159    0.000000000000
 C   -1.000279693453   -0.140545524159    0.000000000000
 H   -0.453649693453    0.811612475841    0.000000000000
 C   -1.000279693453   -2.570739524159    0.000000000000
 H   -0.453649693453   -3.522896524159    0.000000000000
 C   -0.205242693453   -1.355642524159    0.000000000000
 O    1.081104306547   -1.355642524159    0.000000000000
NA    5.031104306547    5.485958165738    0.000000000000
