13

 C   -3.186453442564   -1.441442690462    0.000000000000
 H   -4.281971442564   -1.441442690462    0.000000000000
 C   -2.454986442564   -0.231460690462    0.000000000000
 H   -2.992869442564    0.727158309538    0.000000000000
 C   -2.454986442564   -2.651425690462    0.000000000000
 H   -2.992868442564   -3.610044690462    0.000000000000
 C   -1.049816442564   -0.226345690462    0.000000000000
 H   -0.503186442564    0.725812309538    0.000000000000
 C   -1.049816442564   -2.656539690462    0.000000000000
 H   -0.503186442564   -3.608696690462    0.000000000000
 C   -0.254779442564   -1.441442690462    0.000000000000
 O    1.031567557436   -1.441442690462    0.000000000000
NA    5.231567557436    5.833170701328    0.000000000000
