13

 C   -3.216175492031   -1.492922790243    0.000000000000
 H   -4.311693492031   -1.492922790243    0.000000000000
 C   -2.484708492031   -0.282940790243    0.000000000000
 H   -3.022591492031    0.675678209757    0.000000000000
 C   -2.484708492031   -2.702905790243    0.000000000000
 H   -3.022590492031   -3.661524790243    0.000000000000
 C   -1.079538492031   -0.277825790243    0.000000000000
 H   -0.532908492031    0.674332209757    0.000000000000
 C   -1.079538492031   -2.708019790243    0.000000000000
 H   -0.532908492031   -3.660176790243    0.000000000000
 C   -0.284501492031   -1.492922790243    0.000000000000
 O    1.001845507969   -1.492922790243    0.000000000000
NA    5.351845507969    6.041498222681    0.000000000000
