13

 C   -3.295434290610   -1.630203056328    0.000000000000
 H   -4.390952290610   -1.630203056328    0.000000000000
 C   -2.563967290610   -0.420221056328    0.000000000000
 H   -3.101850290610    0.538397943672    0.000000000000
 C   -2.563967290610   -2.840186056328    0.000000000000
 H   -3.101849290610   -3.798805056328    0.000000000000
 C   -1.158797290610   -0.415106056328    0.000000000000
 H   -0.612167290610    0.537051943672    0.000000000000
 C   -1.158797290610   -2.845300056328    0.000000000000
 H   -0.612167290610   -3.797457056328    0.000000000000
 C   -0.363760290610   -1.630203056328    0.000000000000
 O    0.922586709390   -1.630203056328    0.000000000000
NA    5.672586709390    6.597038279624    0.000000000000
