13

 C   -3.305341640432   -1.647363089589    0.000000000000
 H   -4.400859640432   -1.647363089589    0.000000000000
 C   -2.573874640432   -0.437381089589    0.000000000000
 H   -3.111757640432    0.521237910411    0.000000000000
 C   -2.573874640432   -2.857346089589    0.000000000000
 H   -3.111756640432   -3.815965089589    0.000000000000
 C   -1.168704640432   -0.432266089589    0.000000000000
 H   -0.622074640432    0.519891910411    0.000000000000
 C   -1.168704640432   -2.862460089589    0.000000000000
 H   -0.622074640432   -3.814617089589    0.000000000000
 C   -0.373667640432   -1.647363089589    0.000000000000
 O    0.912679359568   -1.647363089589    0.000000000000
NA    5.712679359568    6.666480786742    0.000000000000
