19

 H   -0.900580000000    1.323500000000   -6.313492108014
 H   -0.000000000000    2.315830000000   -5.126352108014
 H    0.900580000000    1.323500000000   -6.313492108014
 C   -0.000000000000    1.369890000000   -5.685192108014
 S    0.000000000000    0.000000000000   -4.484692108014
 C    0.000000000000   -1.369890000000   -5.685192108014
 H    0.900580000000   -1.323500000000   -6.313492108014
 H    0.000000000000   -2.315830000000   -5.126352108014
 H   -0.900580000000   -1.323500000000   -6.313492108014
RB    0.000000000000    0.000000000000    1.470877891986
 S    0.000000000000    0.000000000000    2.470877891986
 C    0.000000000000   -1.369889321678    3.671374721117
 H    0.900580191659   -1.323502558124    4.299672780527
 H    0.000000000000   -2.315830282490    3.112542509217
 H   -0.900580191659   -1.323502558124    4.299672780527
 C    0.000000000000    1.369889321678    3.671374721117
 H   -0.900580191659    1.323502558124    4.299672780527
 H    0.000000000000    2.315830282490    3.112542509217
 H    0.900580191659    1.323502558124    4.299672780527
