19

 H   -0.900580000000    1.323500000000   -6.343173405497
 H   -0.000000000000    2.315830000000   -5.156033405497
 H    0.900580000000    1.323500000000   -6.343173405497
 C   -0.000000000000    1.369890000000   -5.714873405497
 S    0.000000000000    0.000000000000   -4.514373405497
 C    0.000000000000   -1.369890000000   -5.714873405497
 H    0.900580000000   -1.323500000000   -6.343173405497
 H    0.000000000000   -2.315830000000   -5.156033405497
 H   -0.900580000000   -1.323500000000   -6.343173405497
RB    0.000000000000    0.000000000000    1.441196594503
 S    0.000000000000    0.000000000000    2.541196594503
 C    0.000000000000   -1.369889321678    3.741693423634
 H    0.900580191659   -1.323502558124    4.369991483044
 H    0.000000000000   -2.315830282490    3.182861211734
 H   -0.900580191659   -1.323502558124    4.369991483044
 C    0.000000000000    1.369889321678    3.741693423634
 H   -0.900580191659    1.323502558124    4.369991483044
 H    0.000000000000    2.315830282490    3.182861211734
 H    0.900580191659    1.323502558124    4.369991483044
