19

 H   -0.900580000000    1.323500000000   -6.372854702981
 H   -0.000000000000    2.315830000000   -5.185714702981
 H    0.900580000000    1.323500000000   -6.372854702981
 C   -0.000000000000    1.369890000000   -5.744554702981
 S    0.000000000000    0.000000000000   -4.544054702981
 C    0.000000000000   -1.369890000000   -5.744554702981
 H    0.900580000000   -1.323500000000   -6.372854702981
 H    0.000000000000   -2.315830000000   -5.185714702981
 H   -0.900580000000   -1.323500000000   -6.372854702981
RB    0.000000000000    0.000000000000    1.411515297019
 S    0.000000000000    0.000000000000    2.611515297019
 C    0.000000000000   -1.369889321678    3.812012126150
 H    0.900580191659   -1.323502558124    4.440310185560
 H    0.000000000000   -2.315830282490    3.253179914250
 H   -0.900580191659   -1.323502558124    4.440310185560
 C    0.000000000000    1.369889321678    3.812012126150
 H   -0.900580191659    1.323502558124    4.440310185560
 H    0.000000000000    2.315830282490    3.253179914250
 H    0.900580191659    1.323502558124    4.440310185560
