19

 H   -0.900580000000    1.323500000000   -6.402536000464
 H   -0.000000000000    2.315830000000   -5.215396000464
 H    0.900580000000    1.323500000000   -6.402536000464
 C   -0.000000000000    1.369890000000   -5.774236000464
 S    0.000000000000    0.000000000000   -4.573736000464
 C    0.000000000000   -1.369890000000   -5.774236000464
 H    0.900580000000   -1.323500000000   -6.402536000464
 H    0.000000000000   -2.315830000000   -5.215396000464
 H   -0.900580000000   -1.323500000000   -6.402536000464
RB    0.000000000000    0.000000000000    1.381833999536
 S    0.000000000000    0.000000000000    2.681833999536
 C    0.000000000000   -1.369889321678    3.882330828667
 H    0.900580191659   -1.323502558124    4.510628888077
 H    0.000000000000   -2.315830282490    3.323498616767
 H   -0.900580191659   -1.323502558124    4.510628888077
 C    0.000000000000    1.369889321678    3.882330828667
 H   -0.900580191659    1.323502558124    4.510628888077
 H    0.000000000000    2.315830282490    3.323498616767
 H    0.900580191659    1.323502558124    4.510628888077
