19

 H   -0.900580000000    1.323500000000   -6.432217297948
 H   -0.000000000000    2.315830000000   -5.245077297948
 H    0.900580000000    1.323500000000   -6.432217297948
 C   -0.000000000000    1.369890000000   -5.803917297948
 S    0.000000000000    0.000000000000   -4.603417297948
 C    0.000000000000   -1.369890000000   -5.803917297948
 H    0.900580000000   -1.323500000000   -6.432217297948
 H    0.000000000000   -2.315830000000   -5.245077297948
 H   -0.900580000000   -1.323500000000   -6.432217297948
RB    0.000000000000    0.000000000000    1.352152702052
 S    0.000000000000    0.000000000000    2.752152702052
 C    0.000000000000   -1.369889321678    3.952649531183
 H    0.900580191659   -1.323502558124    4.580947590593
 H    0.000000000000   -2.315830282490    3.393817319283
 H   -0.900580191659   -1.323502558124    4.580947590593
 C    0.000000000000    1.369889321678    3.952649531183
 H   -0.900580191659    1.323502558124    4.580947590593
 H    0.000000000000    2.315830282490    3.393817319283
 H    0.900580191659    1.323502558124    4.580947590593
