19

 H   -0.900580000000    1.323500000000   -6.461898595431
 H   -0.000000000000    2.315830000000   -5.274758595431
 H    0.900580000000    1.323500000000   -6.461898595431
 C   -0.000000000000    1.369890000000   -5.833598595431
 S    0.000000000000    0.000000000000   -4.633098595431
 C    0.000000000000   -1.369890000000   -5.833598595431
 H    0.900580000000   -1.323500000000   -6.461898595431
 H    0.000000000000   -2.315830000000   -5.274758595431
 H   -0.900580000000   -1.323500000000   -6.461898595431
RB    0.000000000000    0.000000000000    1.322471404569
 S    0.000000000000    0.000000000000    2.822471404569
 C    0.000000000000   -1.369889321678    4.022968233700
 H    0.900580191659   -1.323502558124    4.651266293110
 H    0.000000000000   -2.315830282490    3.464136021800
 H   -0.900580191659   -1.323502558124    4.651266293110
 C    0.000000000000    1.369889321678    4.022968233700
 H   -0.900580191659    1.323502558124    4.651266293110
 H    0.000000000000    2.315830282490    3.464136021800
 H    0.900580191659    1.323502558124    4.651266293110
