19

 H   -0.900580000000    1.323500000000   -6.521261190398
 H   -0.000000000000    2.315830000000   -5.334121190398
 H    0.900580000000    1.323500000000   -6.521261190398
 C   -0.000000000000    1.369890000000   -5.892961190398
 S    0.000000000000    0.000000000000   -4.692461190398
 C    0.000000000000   -1.369890000000   -5.892961190398
 H    0.900580000000   -1.323500000000   -6.521261190398
 H    0.000000000000   -2.315830000000   -5.334121190398
 H   -0.900580000000   -1.323500000000   -6.521261190398
RB    0.000000000000    0.000000000000    1.263108809602
 S    0.000000000000    0.000000000000    2.963108809602
 C    0.000000000000   -1.369889321678    4.163605638733
 H    0.900580191659   -1.323502558124    4.791903698143
 H    0.000000000000   -2.315830282490    3.604773426833
 H   -0.900580191659   -1.323502558124    4.791903698143
 C    0.000000000000    1.369889321678    4.163605638733
 H   -0.900580191659    1.323502558124    4.791903698143
 H    0.000000000000    2.315830282490    3.604773426833
 H    0.900580191659    1.323502558124    4.791903698143
