19

 H   -0.900580000000    1.323500000000   -6.550942487882
 H   -0.000000000000    2.315830000000   -5.363802487882
 H    0.900580000000    1.323500000000   -6.550942487882
 C   -0.000000000000    1.369890000000   -5.922642487882
 S    0.000000000000    0.000000000000   -4.722142487882
 C    0.000000000000   -1.369890000000   -5.922642487882
 H    0.900580000000   -1.323500000000   -6.550942487882
 H    0.000000000000   -2.315830000000   -5.363802487882
 H   -0.900580000000   -1.323500000000   -6.550942487882
RB    0.000000000000    0.000000000000    1.233427512118
 S    0.000000000000    0.000000000000    3.033427512118
 C    0.000000000000   -1.369889321678    4.233924341249
 H    0.900580191659   -1.323502558124    4.862222400659
 H    0.000000000000   -2.315830282490    3.675092129349
 H   -0.900580191659   -1.323502558124    4.862222400659
 C    0.000000000000    1.369889321678    4.233924341249
 H   -0.900580191659    1.323502558124    4.862222400659
 H    0.000000000000    2.315830282490    3.675092129349
 H    0.900580191659    1.323502558124    4.862222400659
