19

 H   -0.900580000000    1.323500000000   -6.610305082849
 H   -0.000000000000    2.315830000000   -5.423165082849
 H    0.900580000000    1.323500000000   -6.610305082849
 C   -0.000000000000    1.369890000000   -5.982005082849
 S    0.000000000000    0.000000000000   -4.781505082849
 C    0.000000000000   -1.369890000000   -5.982005082849
 H    0.900580000000   -1.323500000000   -6.610305082849
 H    0.000000000000   -2.315830000000   -5.423165082849
 H   -0.900580000000   -1.323500000000   -6.610305082849
RB    0.000000000000    0.000000000000    1.174064917151
 S    0.000000000000    0.000000000000    3.174064917151
 C    0.000000000000   -1.369889321678    4.374561746282
 H    0.900580191659   -1.323502558124    5.002859805692
 H    0.000000000000   -2.315830282490    3.815729534382
 H   -0.900580191659   -1.323502558124    5.002859805692
 C    0.000000000000    1.369889321678    4.374561746282
 H   -0.900580191659    1.323502558124    5.002859805692
 H    0.000000000000    2.315830282490    3.815729534382
 H    0.900580191659    1.323502558124    5.002859805692
