19

 H   -0.900580000000    1.323500000000   -6.639986380332
 H   -0.000000000000    2.315830000000   -5.452846380332
 H    0.900580000000    1.323500000000   -6.639986380332
 C   -0.000000000000    1.369890000000   -6.011686380332
 S    0.000000000000    0.000000000000   -4.811186380332
 C    0.000000000000   -1.369890000000   -6.011686380332
 H    0.900580000000   -1.323500000000   -6.639986380332
 H    0.000000000000   -2.315830000000   -5.452846380332
 H   -0.900580000000   -1.323500000000   -6.639986380332
RB    0.000000000000    0.000000000000    1.144383619668
 S    0.000000000000    0.000000000000    3.244383619668
 C    0.000000000000   -1.369889321678    4.444880448799
 H    0.900580191659   -1.323502558124    5.073178508208
 H    0.000000000000   -2.315830282490    3.886048236899
 H   -0.900580191659   -1.323502558124    5.073178508208
 C    0.000000000000    1.369889321678    4.444880448799
 H   -0.900580191659    1.323502558124    5.073178508208
 H    0.000000000000    2.315830282490    3.886048236899
 H    0.900580191659    1.323502558124    5.073178508208
