19

 H   -0.900580000000    1.323500000000   -6.996161950135
 H   -0.000000000000    2.315830000000   -5.809021950135
 H    0.900580000000    1.323500000000   -6.996161950135
 C   -0.000000000000    1.369890000000   -6.367861950135
 S    0.000000000000    0.000000000000   -5.167361950135
 C    0.000000000000   -1.369890000000   -6.367861950135
 H    0.900580000000   -1.323500000000   -6.996161950135
 H    0.000000000000   -2.315830000000   -5.809021950135
 H   -0.900580000000   -1.323500000000   -6.996161950135
RB    0.000000000000    0.000000000000    0.788208049865
 S    0.000000000000    0.000000000000    4.088208049865
 C    0.000000000000   -1.369889321678    5.288704878996
 H    0.900580191659   -1.323502558124    5.917002938406
 H    0.000000000000   -2.315830282490    4.729872667096
 H   -0.900580191659   -1.323502558124    5.917002938406
 C    0.000000000000    1.369889321678    5.288704878996
 H   -0.900580191659    1.323502558124    5.917002938406
 H    0.000000000000    2.315830282490    4.729872667096
 H    0.900580191659    1.323502558124    5.917002938406
