19

 H   -0.900580000000    1.323500000000   -7.025843247618
 H   -0.000000000000    2.315830000000   -5.838703247618
 H    0.900580000000    1.323500000000   -7.025843247618
 C   -0.000000000000    1.369890000000   -6.397543247618
 S    0.000000000000    0.000000000000   -5.197043247618
 C    0.000000000000   -1.369890000000   -6.397543247618
 H    0.900580000000   -1.323500000000   -7.025843247618
 H    0.000000000000   -2.315830000000   -5.838703247618
 H   -0.900580000000   -1.323500000000   -7.025843247618
RB    0.000000000000    0.000000000000    0.758526752382
 S    0.000000000000    0.000000000000    4.158526752382
 C    0.000000000000   -1.369889321678    5.359023581513
 H    0.900580191659   -1.323502558124    5.987321640923
 H    0.000000000000   -2.315830282490    4.800191369613
 H   -0.900580191659   -1.323502558124    5.987321640923
 C    0.000000000000    1.369889321678    5.359023581513
 H   -0.900580191659    1.323502558124    5.987321640923
 H    0.000000000000    2.315830282490    4.800191369613
 H    0.900580191659    1.323502558124    5.987321640923
