19

 H   -0.900580000000    1.323500000000   -7.174249735036
 H   -0.000000000000    2.315830000000   -5.987109735036
 H    0.900580000000    1.323500000000   -7.174249735036
 C   -0.000000000000    1.369890000000   -6.545949735036
 S    0.000000000000    0.000000000000   -5.345449735036
 C    0.000000000000   -1.369890000000   -6.545949735036
 H    0.900580000000   -1.323500000000   -7.174249735036
 H    0.000000000000   -2.315830000000   -5.987109735036
 H   -0.900580000000   -1.323500000000   -7.174249735036
RB    0.000000000000    0.000000000000    0.610120264964
 S    0.000000000000    0.000000000000    4.510120264964
 C    0.000000000000   -1.369889321678    5.710617094095
 H    0.900580191659   -1.323502558124    6.338915153505
 H    0.000000000000   -2.315830282490    5.151784882195
 H   -0.900580191659   -1.323502558124    6.338915153505
 C    0.000000000000    1.369889321678    5.710617094095
 H   -0.900580191659    1.323502558124    6.338915153505
 H    0.000000000000    2.315830282490    5.151784882195
 H    0.900580191659    1.323502558124    6.338915153505
