19

 H   -0.900580000000    1.323500000000   -7.530425304838
 H   -0.000000000000    2.315830000000   -6.343285304838
 H    0.900580000000    1.323500000000   -7.530425304838
 C   -0.000000000000    1.369890000000   -6.902125304838
 S    0.000000000000    0.000000000000   -5.701625304838
 C    0.000000000000   -1.369890000000   -6.902125304838
 H    0.900580000000   -1.323500000000   -7.530425304838
 H    0.000000000000   -2.315830000000   -6.343285304838
 H   -0.900580000000   -1.323500000000   -7.530425304838
RB    0.000000000000    0.000000000000    0.253944695162
 S    0.000000000000    0.000000000000    5.353944695162
 C    0.000000000000   -1.369889321678    6.554441524293
 H    0.900580191659   -1.323502558124    7.182739583703
 H    0.000000000000   -2.315830282490    5.995609312393
 H   -0.900580191659   -1.323502558124    7.182739583703
 C    0.000000000000    1.369889321678    6.554441524293
 H   -0.900580191659    1.323502558124    7.182739583703
 H    0.000000000000    2.315830282490    5.995609312393
 H    0.900580191659    1.323502558124    7.182739583703
