19

 H   -0.900580000000    1.323500000000   -7.589787899805
 H   -0.000000000000    2.315830000000   -6.402647899805
 H    0.900580000000    1.323500000000   -7.589787899805
 C   -0.000000000000    1.369890000000   -6.961487899805
 S    0.000000000000    0.000000000000   -5.760987899805
 C    0.000000000000   -1.369890000000   -6.961487899805
 H    0.900580000000   -1.323500000000   -7.589787899805
 H    0.000000000000   -2.315830000000   -6.402647899805
 H   -0.900580000000   -1.323500000000   -7.589787899805
RB    0.000000000000    0.000000000000    0.194582100195
 S    0.000000000000    0.000000000000    5.494582100195
 C    0.000000000000   -1.369889321678    6.695078929326
 H    0.900580191659   -1.323502558124    7.323376988736
 H    0.000000000000   -2.315830282490    6.136246717426
 H   -0.900580191659   -1.323502558124    7.323376988736
 C    0.000000000000    1.369889321678    6.695078929326
 H   -0.900580191659    1.323502558124    7.323376988736
 H    0.000000000000    2.315830282490    6.136246717426
 H    0.900580191659    1.323502558124    7.323376988736
