19

 H   -0.900580000000    1.323500000000   -7.619469197289
 H   -0.000000000000    2.315830000000   -6.432329197289
 H    0.900580000000    1.323500000000   -7.619469197289
 C   -0.000000000000    1.369890000000   -6.991169197289
 S    0.000000000000    0.000000000000   -5.790669197289
 C    0.000000000000   -1.369890000000   -6.991169197289
 H    0.900580000000   -1.323500000000   -7.619469197289
 H    0.000000000000   -2.315830000000   -6.432329197289
 H   -0.900580000000   -1.323500000000   -7.619469197289
RB    0.000000000000    0.000000000000    0.164900802711
 S    0.000000000000    0.000000000000    5.564900802711
 C    0.000000000000   -1.369889321678    6.765397631842
 H    0.900580191659   -1.323502558124    7.393695691252
 H    0.000000000000   -2.315830282490    6.206565419942
 H   -0.900580191659   -1.323502558124    7.393695691252
 C    0.000000000000    1.369889321678    6.765397631842
 H   -0.900580191659    1.323502558124    7.393695691252
 H    0.000000000000    2.315830282490    6.206565419942
 H    0.900580191659    1.323502558124    7.393695691252
