19

 H   -0.900580000000    1.323500000000   -7.649150494772
 H   -0.000000000000    2.315830000000   -6.462010494772
 H    0.900580000000    1.323500000000   -7.649150494772
 C   -0.000000000000    1.369890000000   -7.020850494772
 S    0.000000000000    0.000000000000   -5.820350494772
 C    0.000000000000   -1.369890000000   -7.020850494772
 H    0.900580000000   -1.323500000000   -7.649150494772
 H    0.000000000000   -2.315830000000   -6.462010494772
 H   -0.900580000000   -1.323500000000   -7.649150494772
RB    0.000000000000    0.000000000000    0.135219505228
 S    0.000000000000    0.000000000000    5.635219505228
 C    0.000000000000   -1.369889321678    6.835716334359
 H    0.900580191659   -1.323502558124    7.464014393768
 H    0.000000000000   -2.315830282490    6.276884122459
 H   -0.900580191659   -1.323502558124    7.464014393768
 C    0.000000000000    1.369889321678    6.835716334359
 H   -0.900580191659    1.323502558124    7.464014393768
 H    0.000000000000    2.315830282490    6.276884122459
 H    0.900580191659    1.323502558124    7.464014393768
