19

 H   -0.900580000000    1.323500000000   -7.708513089739
 H   -0.000000000000    2.315830000000   -6.521373089739
 H    0.900580000000    1.323500000000   -7.708513089739
 C   -0.000000000000    1.369890000000   -7.080213089739
 S    0.000000000000    0.000000000000   -5.879713089739
 C    0.000000000000   -1.369890000000   -7.080213089739
 H    0.900580000000   -1.323500000000   -7.708513089739
 H    0.000000000000   -2.315830000000   -6.521373089739
 H   -0.900580000000   -1.323500000000   -7.708513089739
RB    0.000000000000    0.000000000000    0.075856910261
 S    0.000000000000    0.000000000000    5.775856910261
 C    0.000000000000   -1.369889321678    6.976353739392
 H    0.900580191659   -1.323502558124    7.604651798801
 H    0.000000000000   -2.315830282490    6.417521527492
 H   -0.900580191659   -1.323502558124    7.604651798801
 C    0.000000000000    1.369889321678    6.976353739392
 H   -0.900580191659    1.323502558124    7.604651798801
 H    0.000000000000    2.315830282490    6.417521527492
 H    0.900580191659    1.323502558124    7.604651798801
