19

 H   -0.900580000000    1.323500000000   -7.945963469608
 H   -0.000000000000    2.315830000000   -6.758823469608
 H    0.900580000000    1.323500000000   -7.945963469608
 C   -0.000000000000    1.369890000000   -7.317663469608
 S    0.000000000000    0.000000000000   -6.117163469608
 C    0.000000000000   -1.369890000000   -7.317663469608
 H    0.900580000000   -1.323500000000   -7.945963469608
 H    0.000000000000   -2.315830000000   -6.758823469608
 H   -0.900580000000   -1.323500000000   -7.945963469608
RB    0.000000000000    0.000000000000   -0.161593469608
 S    0.000000000000    0.000000000000    6.338406530392
 C    0.000000000000   -1.369889321678    7.538903359523
 H    0.900580191659   -1.323502558124    8.167201418933
 H    0.000000000000   -2.315830282490    6.980071147623
 H   -0.900580191659   -1.323502558124    8.167201418933
 C    0.000000000000    1.369889321678    7.538903359523
 H   -0.900580191659    1.323502558124    8.167201418933
 H    0.000000000000    2.315830282490    6.980071147623
 H    0.900580191659    1.323502558124    8.167201418933
