19

 H   -0.900580000000    1.323500000000   -8.005326064575
 H   -0.000000000000    2.315830000000   -6.818186064575
 H    0.900580000000    1.323500000000   -8.005326064575
 C   -0.000000000000    1.369890000000   -7.377026064575
 S    0.000000000000    0.000000000000   -6.176526064575
 C    0.000000000000   -1.369890000000   -7.377026064575
 H    0.900580000000   -1.323500000000   -8.005326064575
 H    0.000000000000   -2.315830000000   -6.818186064575
 H   -0.900580000000   -1.323500000000   -8.005326064575
RB    0.000000000000    0.000000000000   -0.220956064575
 S    0.000000000000    0.000000000000    6.479043935425
 C    0.000000000000   -1.369889321678    7.679540764556
 H    0.900580191659   -1.323502558124    8.307838823966
 H    0.000000000000   -2.315830282490    7.120708552656
 H   -0.900580191659   -1.323502558124    8.307838823966
 C    0.000000000000    1.369889321678    7.679540764556
 H   -0.900580191659    1.323502558124    8.307838823966
 H    0.000000000000    2.315830282490    7.120708552656
 H    0.900580191659    1.323502558124    8.307838823966
