19

 H   -0.900580000000    1.323500000000   -8.035007362058
 H   -0.000000000000    2.315830000000   -6.847867362058
 H    0.900580000000    1.323500000000   -8.035007362058
 C   -0.000000000000    1.369890000000   -7.406707362058
 S    0.000000000000    0.000000000000   -6.206207362058
 C    0.000000000000   -1.369890000000   -7.406707362058
 H    0.900580000000   -1.323500000000   -8.035007362058
 H    0.000000000000   -2.315830000000   -6.847867362058
 H   -0.900580000000   -1.323500000000   -8.035007362058
RB    0.000000000000    0.000000000000   -0.250637362058
 S    0.000000000000    0.000000000000    6.549362637942
 C    0.000000000000   -1.369889321678    7.749859467073
 H    0.900580191659   -1.323502558124    8.378157526483
 H    0.000000000000   -2.315830282490    7.191027255173
 H   -0.900580191659   -1.323502558124    8.378157526483
 C    0.000000000000    1.369889321678    7.749859467073
 H   -0.900580191659    1.323502558124    8.378157526483
 H    0.000000000000    2.315830282490    7.191027255173
 H    0.900580191659    1.323502558124    8.378157526483
