19

 H   -0.900580000000    1.323500000000   -8.124051254509
 H   -0.000000000000    2.315830000000   -6.936911254509
 H    0.900580000000    1.323500000000   -8.124051254509
 C   -0.000000000000    1.369890000000   -7.495751254509
 S    0.000000000000    0.000000000000   -6.295251254509
 C    0.000000000000   -1.369890000000   -7.495751254509
 H    0.900580000000   -1.323500000000   -8.124051254509
 H    0.000000000000   -2.315830000000   -6.936911254509
 H   -0.900580000000   -1.323500000000   -8.124051254509
RB    0.000000000000    0.000000000000   -0.339681254509
 S    0.000000000000    0.000000000000    6.760318745491
 C    0.000000000000   -1.369889321678    7.960815574622
 H    0.900580191659   -1.323502558124    8.589113634032
 H    0.000000000000   -2.315830282490    7.401983362722
 H   -0.900580191659   -1.323502558124    8.589113634032
 C    0.000000000000    1.369889321678    7.960815574622
 H   -0.900580191659    1.323502558124    8.589113634032
 H    0.000000000000    2.315830282490    7.401983362722
 H    0.900580191659    1.323502558124    8.589113634032
