19

 H   -0.900580000000    1.323500000000   -8.361501634377
 H   -0.000000000000    2.315830000000   -7.174361634377
 H    0.900580000000    1.323500000000   -8.361501634377
 C   -0.000000000000    1.369890000000   -7.733201634377
 S    0.000000000000    0.000000000000   -6.532701634377
 C    0.000000000000   -1.369890000000   -7.733201634377
 H    0.900580000000   -1.323500000000   -8.361501634377
 H    0.000000000000   -2.315830000000   -7.174361634377
 H   -0.900580000000   -1.323500000000   -8.361501634377
RB    0.000000000000    0.000000000000   -0.577131634377
 S    0.000000000000    0.000000000000    7.322868365623
 C    0.000000000000   -1.369889321678    8.523365194754
 H    0.900580191659   -1.323502558124    9.151663254164
 H    0.000000000000   -2.315830282490    7.964532982854
 H   -0.900580191659   -1.323502558124    9.151663254164
 C    0.000000000000    1.369889321678    8.523365194754
 H   -0.900580191659    1.323502558124    9.151663254164
 H    0.000000000000    2.315830282490    7.964532982854
 H    0.900580191659    1.323502558124    9.151663254164
