19

 H   -0.900580000000    1.323500000000   -8.391182931860
 H   -0.000000000000    2.315830000000   -7.204042931860
 H    0.900580000000    1.323500000000   -8.391182931860
 C   -0.000000000000    1.369890000000   -7.762882931860
 S    0.000000000000    0.000000000000   -6.562382931860
 C    0.000000000000   -1.369890000000   -7.762882931860
 H    0.900580000000   -1.323500000000   -8.391182931860
 H    0.000000000000   -2.315830000000   -7.204042931860
 H   -0.900580000000   -1.323500000000   -8.391182931860
RB    0.000000000000    0.000000000000   -0.606812931860
 S    0.000000000000    0.000000000000    7.393187068140
 C    0.000000000000   -1.369889321678    8.593683897271
 H    0.900580191659   -1.323502558124    9.221981956680
 H    0.000000000000   -2.315830282490    8.034851685370
 H   -0.900580191659   -1.323502558124    9.221981956680
 C    0.000000000000    1.369889321678    8.593683897271
 H   -0.900580191659    1.323502558124    9.221981956680
 H    0.000000000000    2.315830282490    8.034851685370
 H    0.900580191659    1.323502558124    9.221981956680
