19

 H   -0.900580000000    1.323500000000   -8.420864229344
 H   -0.000000000000    2.315830000000   -7.233724229344
 H    0.900580000000    1.323500000000   -8.420864229344
 C   -0.000000000000    1.369890000000   -7.792564229344
 S    0.000000000000    0.000000000000   -6.592064229344
 C    0.000000000000   -1.369890000000   -7.792564229344
 H    0.900580000000   -1.323500000000   -8.420864229344
 H    0.000000000000   -2.315830000000   -7.233724229344
 H   -0.900580000000   -1.323500000000   -8.420864229344
RB    0.000000000000    0.000000000000   -0.636494229344
 S    0.000000000000    0.000000000000    7.463505770656
 C    0.000000000000   -1.369889321678    8.664002599787
 H    0.900580191659   -1.323502558124    9.292300659197
 H    0.000000000000   -2.315830282490    8.105170387887
 H   -0.900580191659   -1.323502558124    9.292300659197
 C    0.000000000000    1.369889321678    8.664002599787
 H   -0.900580191659    1.323502558124    9.292300659197
 H    0.000000000000    2.315830282490    8.105170387887
 H    0.900580191659    1.323502558124    9.292300659197
