19

 H   -0.900580000000    1.323500000000   -8.480226824311
 H   -0.000000000000    2.315830000000   -7.293086824311
 H    0.900580000000    1.323500000000   -8.480226824311
 C   -0.000000000000    1.369890000000   -7.851926824311
 S    0.000000000000    0.000000000000   -6.651426824311
 C    0.000000000000   -1.369890000000   -7.851926824311
 H    0.900580000000   -1.323500000000   -8.480226824311
 H    0.000000000000   -2.315830000000   -7.293086824311
 H   -0.900580000000   -1.323500000000   -8.480226824311
RB    0.000000000000    0.000000000000   -0.695856824311
 S    0.000000000000    0.000000000000    7.604143175689
 C    0.000000000000   -1.369889321678    8.804640004820
 H    0.900580191659   -1.323502558124    9.432938064230
 H    0.000000000000   -2.315830282490    8.245807792920
 H   -0.900580191659   -1.323502558124    9.432938064230
 C    0.000000000000    1.369889321678    8.804640004820
 H   -0.900580191659    1.323502558124    9.432938064230
 H    0.000000000000    2.315830282490    8.245807792920
 H    0.900580191659    1.323502558124    9.432938064230
