19

 H   -0.900580000000    1.323500000000   -8.539589419278
 H   -0.000000000000    2.315830000000   -7.352449419278
 H    0.900580000000    1.323500000000   -8.539589419278
 C   -0.000000000000    1.369890000000   -7.911289419278
 S    0.000000000000    0.000000000000   -6.710789419278
 C    0.000000000000   -1.369890000000   -7.911289419278
 H    0.900580000000   -1.323500000000   -8.539589419278
 H    0.000000000000   -2.315830000000   -7.352449419278
 H   -0.900580000000   -1.323500000000   -8.539589419278
RB    0.000000000000    0.000000000000   -0.755219419278
 S    0.000000000000    0.000000000000    7.744780580722
 C    0.000000000000   -1.369889321678    8.945277409853
 H    0.900580191659   -1.323502558124    9.573575469263
 H    0.000000000000   -2.315830282490    8.386445197953
 H   -0.900580191659   -1.323502558124    9.573575469263
 C    0.000000000000    1.369889321678    8.945277409853
 H   -0.900580191659    1.323502558124    9.573575469263
 H    0.000000000000    2.315830282490    8.386445197953
 H    0.900580191659    1.323502558124    9.573575469263
