19

 H   -0.900580000000    1.323500000000   -8.569270716762
 H   -0.000000000000    2.315830000000   -7.382130716762
 H    0.900580000000    1.323500000000   -8.569270716762
 C   -0.000000000000    1.369890000000   -7.940970716762
 S    0.000000000000    0.000000000000   -6.740470716762
 C    0.000000000000   -1.369890000000   -7.940970716762
 H    0.900580000000   -1.323500000000   -8.569270716762
 H    0.000000000000   -2.315830000000   -7.382130716762
 H   -0.900580000000   -1.323500000000   -8.569270716762
RB    0.000000000000    0.000000000000   -0.784900716762
 S    0.000000000000    0.000000000000    7.815099283238
 C    0.000000000000   -1.369889321678    9.015596112369
 H    0.900580191659   -1.323502558124    9.643894171779
 H    0.000000000000   -2.315830282490    8.456763900469
 H   -0.900580191659   -1.323502558124    9.643894171779
 C    0.000000000000    1.369889321678    9.015596112369
 H   -0.900580191659    1.323502558124    9.643894171779
 H    0.000000000000    2.315830282490    8.456763900469
 H    0.900580191659    1.323502558124    9.643894171779
