19

 H   -0.900580000000    1.323500000000   -8.628633311729
 H   -0.000000000000    2.315830000000   -7.441493311729
 H    0.900580000000    1.323500000000   -8.628633311729
 C   -0.000000000000    1.369890000000   -8.000333311729
 S    0.000000000000    0.000000000000   -6.799833311729
 C    0.000000000000   -1.369890000000   -8.000333311729
 H    0.900580000000   -1.323500000000   -8.628633311729
 H    0.000000000000   -2.315830000000   -7.441493311729
 H   -0.900580000000   -1.323500000000   -8.628633311729
RB    0.000000000000    0.000000000000   -0.844263311729
 S    0.000000000000    0.000000000000    7.955736688271
 C    0.000000000000   -1.369889321678    9.156233517402
 H    0.900580191659   -1.323502558124    9.784531576812
 H    0.000000000000   -2.315830282490    8.597401305502
 H   -0.900580191659   -1.323502558124    9.784531576812
 C    0.000000000000    1.369889321678    9.156233517402
 H   -0.900580191659    1.323502558124    9.784531576812
 H    0.000000000000    2.315830282490    8.597401305502
 H    0.900580191659    1.323502558124    9.784531576812
