19

 H   -0.900580000000    1.323500000000   -8.658314609212
 H   -0.000000000000    2.315830000000   -7.471174609212
 H    0.900580000000    1.323500000000   -8.658314609212
 C   -0.000000000000    1.369890000000   -8.030014609212
 S    0.000000000000    0.000000000000   -6.829514609212
 C    0.000000000000   -1.369890000000   -8.030014609212
 H    0.900580000000   -1.323500000000   -8.658314609212
 H    0.000000000000   -2.315830000000   -7.471174609212
 H   -0.900580000000   -1.323500000000   -8.658314609212
RB    0.000000000000    0.000000000000   -0.873944609212
 S    0.000000000000    0.000000000000    8.026055390788
 C    0.000000000000   -1.369889321678    9.226552219919
 H    0.900580191659   -1.323502558124    9.854850279329
 H    0.000000000000   -2.315830282490    8.667720008019
 H   -0.900580191659   -1.323502558124    9.854850279329
 C    0.000000000000    1.369889321678    9.226552219919
 H   -0.900580191659    1.323502558124    9.854850279329
 H    0.000000000000    2.315830282490    8.667720008019
 H    0.900580191659    1.323502558124    9.854850279329
