19

 H   -0.900580000000    1.323500000000   -8.747358501663
 H   -0.000000000000    2.315830000000   -7.560218501663
 H    0.900580000000    1.323500000000   -8.747358501663
 C   -0.000000000000    1.369890000000   -8.119058501663
 S    0.000000000000    0.000000000000   -6.918558501663
 C    0.000000000000   -1.369890000000   -8.119058501663
 H    0.900580000000   -1.323500000000   -8.747358501663
 H    0.000000000000   -2.315830000000   -7.560218501663
 H   -0.900580000000   -1.323500000000   -8.747358501663
RB    0.000000000000    0.000000000000   -0.962988501663
 S    0.000000000000    0.000000000000    8.237011498337
 C    0.000000000000   -1.369889321678    9.437508327468
 H    0.900580191659   -1.323502558124   10.065806386878
 H    0.000000000000   -2.315830282490    8.878676115568
 H   -0.900580191659   -1.323502558124   10.065806386878
 C    0.000000000000    1.369889321678    9.437508327468
 H   -0.900580191659    1.323502558124   10.065806386878
 H    0.000000000000    2.315830282490    8.878676115568
 H    0.900580191659    1.323502558124   10.065806386878
