19

 H   -0.900580000000    1.323500000000   -8.777039799146
 H   -0.000000000000    2.315830000000   -7.589899799146
 H    0.900580000000    1.323500000000   -8.777039799146
 C   -0.000000000000    1.369890000000   -8.148739799146
 S    0.000000000000    0.000000000000   -6.948239799146
 C    0.000000000000   -1.369890000000   -8.148739799146
 H    0.900580000000   -1.323500000000   -8.777039799146
 H    0.000000000000   -2.315830000000   -7.589899799146
 H   -0.900580000000   -1.323500000000   -8.777039799146
RB    0.000000000000    0.000000000000   -0.992669799146
 S    0.000000000000    0.000000000000    8.307330200854
 C    0.000000000000   -1.369889321678    9.507827029985
 H    0.900580191659   -1.323502558124   10.136125089394
 H    0.000000000000   -2.315830282490    8.948994818085
 H   -0.900580191659   -1.323502558124   10.136125089394
 C    0.000000000000    1.369889321678    9.507827029985
 H   -0.900580191659    1.323502558124   10.136125089394
 H    0.000000000000    2.315830282490    8.948994818085
 H    0.900580191659    1.323502558124   10.136125089394
