19

 H   -0.900580000000    1.323500000000   -8.806721096630
 H   -0.000000000000    2.315830000000   -7.619581096630
 H    0.900580000000    1.323500000000   -8.806721096630
 C   -0.000000000000    1.369890000000   -8.178421096630
 S    0.000000000000    0.000000000000   -6.977921096630
 C    0.000000000000   -1.369890000000   -8.178421096630
 H    0.900580000000   -1.323500000000   -8.806721096630
 H    0.000000000000   -2.315830000000   -7.619581096630
 H   -0.900580000000   -1.323500000000   -8.806721096630
RB    0.000000000000    0.000000000000   -1.022351096630
 S    0.000000000000    0.000000000000    8.377648903370
 C    0.000000000000   -1.369889321678    9.578145732501
 H    0.900580191659   -1.323502558124   10.206443791911
 H    0.000000000000   -2.315830282490    9.019313520601
 H   -0.900580191659   -1.323502558124   10.206443791911
 C    0.000000000000    1.369889321678    9.578145732501
 H   -0.900580191659    1.323502558124   10.206443791911
 H    0.000000000000    2.315830282490    9.019313520601
 H    0.900580191659    1.323502558124   10.206443791911
