19

 H   -0.900580000000    1.323500000000   -8.895764989080
 H   -0.000000000000    2.315830000000   -7.708624989080
 H    0.900580000000    1.323500000000   -8.895764989080
 C   -0.000000000000    1.369890000000   -8.267464989080
 S    0.000000000000    0.000000000000   -7.066964989080
 C    0.000000000000   -1.369890000000   -8.267464989080
 H    0.900580000000   -1.323500000000   -8.895764989080
 H    0.000000000000   -2.315830000000   -7.708624989080
 H   -0.900580000000   -1.323500000000   -8.895764989080
RB    0.000000000000    0.000000000000   -1.111394989080
 S    0.000000000000    0.000000000000    8.588605010920
 C    0.000000000000   -1.369889321678    9.789101840051
 H    0.900580191659   -1.323502558124   10.417399899460
 H    0.000000000000   -2.315830282490    9.230269628150
 H   -0.900580191659   -1.323502558124   10.417399899460
 C    0.000000000000    1.369889321678    9.789101840051
 H   -0.900580191659    1.323502558124   10.417399899460
 H    0.000000000000    2.315830282490    9.230269628150
 H    0.900580191659    1.323502558124   10.417399899460
