13

 C    1.371603818876    1.441545074368    0.000000000000
 H    0.904983818876    2.433712074368    0.000000000000
 H    2.008752818876    1.337128074368    0.892506000000
 H    2.008752818876    1.337128074368   -0.892506000000
 C    0.273428818876    0.390460074368    0.000000000000
 O   -0.932734181124    0.668514074368    0.000000000000
 N    0.704357818876   -0.909688925632    0.000000000000
 H    1.696534818876   -1.103589925632    0.000000000000
 C   -0.253977181124   -2.008216925632    0.000000000000
 H   -0.898042181124   -1.959737925632    0.890708000000
 H   -0.898042181124   -1.959737925632   -0.890708000000
 H    0.299248818876   -2.956641925632    0.000000000000
LI   -2.394398282285    1.005468159334    0.000000000000
