13

 C    1.380142346199    1.439576707177    0.000000000000
 H    0.913522346199    2.431743707177    0.000000000000
 H    2.017291346199    1.335159707177    0.892506000000
 H    2.017291346199    1.335159707177   -0.892506000000
 C    0.281967346199    0.388491707177    0.000000000000
 O   -0.924195653801    0.666545707177    0.000000000000
 N    0.712896346199   -0.911657292823    0.000000000000
 H    1.705073346199   -1.105558292823    0.000000000000
 C   -0.245438653801   -2.010185292823    0.000000000000
 H   -0.889503653801   -1.961706292823    0.890708000000
 H   -0.889503653801   -1.961706292823   -0.890708000000
 H    0.307787346199   -2.958610292823    0.000000000000
LI   -2.483304028374    1.025963397807    0.000000000000
