13

 C    1.439912037454    1.425798136841    0.000000000000
 H    0.973292037454    2.417965136841    0.000000000000
 H    2.077061037454    1.321381136841    0.892506000000
 H    2.077061037454    1.321381136841   -0.892506000000
 C    0.341737037454    0.374713136841    0.000000000000
 O   -0.864425962546    0.652767136841    0.000000000000
 N    0.772666037454   -0.925435863159    0.000000000000
 H    1.764843037454   -1.119336863159    0.000000000000
 C   -0.185668962546   -2.023963863159    0.000000000000
 H   -0.829733962546   -1.975484863159    0.890708000000
 H   -0.829733962546   -1.975484863159   -0.890708000000
 H    0.367557037454   -2.972388863159    0.000000000000
LI   -3.105644250994    1.169430067122    0.000000000000
