13

 C    1.465527619420    1.419893035269    0.000000000000
 H    0.998907619420    2.412060035269    0.000000000000
 H    2.102676619420    1.315476035269    0.892506000000
 H    2.102676619420    1.315476035269   -0.892506000000
 C    0.367352619420    0.368808035269    0.000000000000
 O   -0.838810380580    0.646862035269    0.000000000000
 N    0.798281619420   -0.931340964731    0.000000000000
 H    1.790458619420   -1.125241964731    0.000000000000
 C   -0.160053380580   -2.029868964731    0.000000000000
 H   -0.804118380580   -1.981389964731    0.890708000000
 H   -0.804118380580   -1.981389964731   -0.890708000000
 H    0.393172619420   -2.978293964731    0.000000000000
LI   -3.372361489260    1.230915782542    0.000000000000
