13

 C    1.474066146743    1.417924668078    0.000000000000
 H    1.007446146743    2.410091668078    0.000000000000
 H    2.111215146743    1.313507668078    0.892506000000
 H    2.111215146743    1.313507668078   -0.892506000000
 C    0.375891146743    0.366839668078    0.000000000000
 O   -0.830271853257    0.644893668078    0.000000000000
 N    0.806820146743   -0.933309331922    0.000000000000
 H    1.798997146743   -1.127210331922    0.000000000000
 C   -0.151514853257   -2.031837331922    0.000000000000
 H   -0.795579853257   -1.983358331922    0.890708000000
 H   -0.795579853257   -1.983358331922   -0.890708000000
 H    0.401711146743   -2.980262331922    0.000000000000
LI   -3.461267235348    1.251411021016    0.000000000000
