13

 C    1.499681728709    1.412019566505    0.000000000000
 H    1.033061728709    2.404186566505    0.000000000000
 H    2.136830728709    1.307602566505    0.892506000000
 H    2.136830728709    1.307602566505   -0.892506000000
 C    0.401506728709    0.360934566505    0.000000000000
 O   -0.804656271291    0.638988566505    0.000000000000
 N    0.832435728709   -0.939214433495    0.000000000000
 H    1.824612728709   -1.133115433495    0.000000000000
 C   -0.125899271291   -2.037742433495    0.000000000000
 H   -0.769964271291   -1.989263433495    0.890708000000
 H   -0.769964271291   -1.989263433495   -0.890708000000
 H    0.427326728709   -2.986167433495    0.000000000000
LI   -3.727984473614    1.312896736436    0.000000000000
