13

 C    1.508220256031    1.410051199314    0.000000000000
 H    1.041600256031    2.402218199314    0.000000000000
 H    2.145369256031    1.305634199314    0.892506000000
 H    2.145369256031    1.305634199314   -0.892506000000
 C    0.410045256031    0.358966199314    0.000000000000
 O   -0.796117743969    0.637020199314    0.000000000000
 N    0.840974256031   -0.941182800686    0.000000000000
 H    1.833151256031   -1.135083800686    0.000000000000
 C   -0.117360743969   -2.039710800686    0.000000000000
 H   -0.761425743969   -1.991231800686    0.890708000000
 H   -0.761425743969   -1.991231800686   -0.890708000000
 H    0.435865256031   -2.988135800686    0.000000000000
LI   -3.816890219703    1.333391974910    0.000000000000
