13

 C    1.525297310676    1.406114464933    0.000000000000
 H    1.058677310676    2.398281464933    0.000000000000
 H    2.162446310676    1.301697464933    0.892506000000
 H    2.162446310676    1.301697464933   -0.892506000000
 C    0.427122310676    0.355029464933    0.000000000000
 O   -0.779040689324    0.633083464933    0.000000000000
 N    0.858051310676   -0.945119535067    0.000000000000
 H    1.850228310676   -1.139020535067    0.000000000000
 C   -0.100283689324   -2.043647535067    0.000000000000
 H   -0.744348689324   -1.995168535067    0.890708000000
 H   -0.744348689324   -1.995168535067   -0.890708000000
 H    0.452942310676   -2.992072535067    0.000000000000
LI   -3.994701711880    1.374382451857    0.000000000000
