13

 C    1.533835837998    1.404146097742    0.000000000000
 H    1.067215837998    2.396313097742    0.000000000000
 H    2.170984837998    1.299729097742    0.892506000000
 H    2.170984837998    1.299729097742   -0.892506000000
 C    0.435660837998    0.353061097742    0.000000000000
 O   -0.770502162002    0.631115097742    0.000000000000
 N    0.866589837998   -0.947087902258    0.000000000000
 H    1.858766837998   -1.140988902258    0.000000000000
 C   -0.091745162002   -2.045615902258    0.000000000000
 H   -0.735810162002   -1.997136902258    0.890708000000
 H   -0.735810162002   -1.997136902258   -0.890708000000
 H    0.461480837998   -2.994040902258    0.000000000000
LI   -4.083607457969    1.394877690331    0.000000000000
