13

 C    1.542374365320    1.402177730551    0.000000000000
 H    1.075754365320    2.394344730551    0.000000000000
 H    2.179523365320    1.297760730551    0.892506000000
 H    2.179523365320    1.297760730551   -0.892506000000
 C    0.444199365320    0.351092730551    0.000000000000
 O   -0.761963634680    0.629146730551    0.000000000000
 N    0.875128365320   -0.949056269449    0.000000000000
 H    1.867305365320   -1.142957269449    0.000000000000
 C   -0.083206634680   -2.047584269449    0.000000000000
 H   -0.727271634680   -1.999105269449    0.890708000000
 H   -0.727271634680   -1.999105269449   -0.890708000000
 H    0.470019365320   -2.996009269449    0.000000000000
LI   -4.172513204057    1.415372928804    0.000000000000
