13

 C    1.550912892642    1.400209363360    0.000000000000
 H    1.084292892642    2.392376363360    0.000000000000
 H    2.188061892642    1.295792363360    0.892506000000
 H    2.188061892642    1.295792363360   -0.892506000000
 C    0.452737892642    0.349124363360    0.000000000000
 O   -0.753425107358    0.627178363360    0.000000000000
 N    0.883666892642   -0.951024636640    0.000000000000
 H    1.875843892642   -1.144925636640    0.000000000000
 C   -0.074668107358   -2.049552636640    0.000000000000
 H   -0.718733107358   -2.001073636640    0.890708000000
 H   -0.718733107358   -2.001073636640   -0.890708000000
 H    0.478557892642   -2.997977636640    0.000000000000
LI   -4.261418950146    1.435868167278    0.000000000000
