13

 C    1.559451419965    1.398240996169    0.000000000000
 H    1.092831419965    2.390407996169    0.000000000000
 H    2.196600419965    1.293823996169    0.892506000000
 H    2.196600419965    1.293823996169   -0.892506000000
 C    0.461276419965    0.347155996169    0.000000000000
 O   -0.744886580035    0.625209996169    0.000000000000
 N    0.892205419965   -0.952993003831    0.000000000000
 H    1.884382419965   -1.146894003831    0.000000000000
 C   -0.066129580035   -2.051521003831    0.000000000000
 H   -0.710194580035   -2.003042003831    0.890708000000
 H   -0.710194580035   -2.003042003831   -0.890708000000
 H    0.487096419965   -2.999946003831    0.000000000000
LI   -4.350324696234    1.456363405751    0.000000000000
