13

 C    1.567989947287    1.396272628978    0.000000000000
 H    1.101369947287    2.388439628978    0.000000000000
 H    2.205138947287    1.291855628978    0.892506000000
 H    2.205138947287    1.291855628978   -0.892506000000
 C    0.469814947287    0.345187628978    0.000000000000
 O   -0.736348052713    0.623241628978    0.000000000000
 N    0.900743947287   -0.954961371022    0.000000000000
 H    1.892920947287   -1.148862371022    0.000000000000
 C   -0.057591052713   -2.053489371022    0.000000000000
 H   -0.701656052713   -2.005010371022    0.890708000000
 H   -0.701656052713   -2.005010371022   -0.890708000000
 H    0.495634947287   -3.001914371022    0.000000000000
LI   -4.439230442323    1.476858644225    0.000000000000
