13

 C    1.576528474609    1.394304261787    0.000000000000
 H    1.109908474609    2.386471261787    0.000000000000
 H    2.213677474609    1.289887261787    0.892506000000
 H    2.213677474609    1.289887261787   -0.892506000000
 C    0.478353474609    0.343219261787    0.000000000000
 O   -0.727809525391    0.621273261787    0.000000000000
 N    0.909282474609   -0.956929738213    0.000000000000
 H    1.901459474609   -1.150830738213    0.000000000000
 C   -0.049052525391   -2.055457738213    0.000000000000
 H   -0.693117525391   -2.006978738213    0.890708000000
 H   -0.693117525391   -2.006978738213   -0.890708000000
 H    0.504173474609   -3.003882738213    0.000000000000
LI   -4.528136188412    1.497353882698    0.000000000000
