13

 C    1.585067001931    1.392335894596    0.000000000000
 H    1.118447001931    2.384502894596    0.000000000000
 H    2.222216001931    1.287918894596    0.892506000000
 H    2.222216001931    1.287918894596   -0.892506000000
 C    0.486892001931    0.341250894596    0.000000000000
 O   -0.719270998069    0.619304894596    0.000000000000
 N    0.917821001931   -0.958898105404    0.000000000000
 H    1.909998001931   -1.152799105404    0.000000000000
 C   -0.040513998069   -2.057426105404    0.000000000000
 H   -0.684578998069   -2.008947105404    0.890708000000
 H   -0.684578998069   -2.008947105404   -0.890708000000
 H    0.512712001931   -3.005851105404    0.000000000000
LI   -4.617041934500    1.517849121172    0.000000000000
