13

 C    1.627759638542    1.382494058642    0.000000000000
 H    1.161139638542    2.374661058642    0.000000000000
 H    2.264908638542    1.278077058642    0.892506000000
 H    2.264908638542    1.278077058642   -0.892506000000
 C    0.529584638542    0.331409058642    0.000000000000
 O   -0.676578361458    0.609463058642    0.000000000000
 N    0.960513638542   -0.968739941358    0.000000000000
 H    1.952690638542   -1.162640941358    0.000000000000
 C    0.002178638542   -2.067267941358    0.000000000000
 H   -0.641886361458   -2.018788941358    0.890708000000
 H   -0.641886361458   -2.018788941358   -0.890708000000
 H    0.555404638542   -3.015692941358    0.000000000000
LI   -5.061570664943    1.620325313539    0.000000000000
