13

 C    1.661913747831    1.374620589879    0.000000000000
 H    1.195293747831    2.366787589879    0.000000000000
 H    2.299062747831    1.270203589879    0.892506000000
 H    2.299062747831    1.270203589879   -0.892506000000
 C    0.563738747831    0.323535589879    0.000000000000
 O   -0.642424252169    0.601589589879    0.000000000000
 N    0.994667747831   -0.976613410121    0.000000000000
 H    1.986844747831   -1.170514410121    0.000000000000
 C    0.036332747831   -2.075141410121    0.000000000000
 H   -0.607732252169   -2.026662410121    0.890708000000
 H   -0.607732252169   -2.026662410121   -0.890708000000
 H    0.589558747831   -3.023566410121    0.000000000000
LI   -5.417193649298    1.702306267433    0.000000000000
