13

 C    1.670452275153    1.372652222688    0.000000000000
 H    1.203832275153    2.364819222688    0.000000000000
 H    2.307601275153    1.268235222688    0.892506000000
 H    2.307601275153    1.268235222688   -0.892506000000
 C    0.572277275153    0.321567222688    0.000000000000
 O   -0.633885724847    0.599621222688    0.000000000000
 N    1.003206275153   -0.978581777312    0.000000000000
 H    1.995383275153   -1.172482777312    0.000000000000
 C    0.044871275153   -2.077109777312    0.000000000000
 H   -0.599193724847   -2.028630777312    0.890708000000
 H   -0.599193724847   -2.028630777312   -0.890708000000
 H    0.598097275153   -3.025534777312    0.000000000000
LI   -5.506099395386    1.722801505907    0.000000000000
