13

 C    1.696067857119    1.366747121115    0.000000000000
 H    1.229447857119    2.358914121115    0.000000000000
 H    2.333216857119    1.262330121115    0.892506000000
 H    2.333216857119    1.262330121115   -0.892506000000
 C    0.597892857119    0.315662121115    0.000000000000
 O   -0.608270142881    0.593716121115    0.000000000000
 N    1.028821857119   -0.984486878885    0.000000000000
 H    2.020998857119   -1.178387878885    0.000000000000
 C    0.070486857119   -2.083014878885    0.000000000000
 H   -0.573578142881   -2.034535878885    0.890708000000
 H   -0.573578142881   -2.034535878885   -0.890708000000
 H    0.623712857119   -3.031439878885    0.000000000000
LI   -5.772816633652    1.784287221327    0.000000000000
