13

 C    1.704606384442    1.364778753924    0.000000000000
 H    1.237986384442    2.356945753924    0.000000000000
 H    2.341755384442    1.260361753924    0.892506000000
 H    2.341755384442    1.260361753924   -0.892506000000
 C    0.606431384442    0.313693753924    0.000000000000
 O   -0.599731615558    0.591747753924    0.000000000000
 N    1.037360384442   -0.986455246076    0.000000000000
 H    2.029537384442   -1.180356246076    0.000000000000
 C    0.079025384442   -2.084983246076    0.000000000000
 H   -0.565039615558   -2.036504246076    0.890708000000
 H   -0.565039615558   -2.036504246076   -0.890708000000
 H    0.632251384442   -3.033408246076    0.000000000000
LI   -5.861722379741    1.804782459801    0.000000000000
