13

 C    1.713144911764    1.362810386733    0.000000000000
 H    1.246524911764    2.354977386733    0.000000000000
 H    2.350293911764    1.258393386733    0.892506000000
 H    2.350293911764    1.258393386733   -0.892506000000
 C    0.614969911764    0.311725386733    0.000000000000
 O   -0.591193088236    0.589779386733    0.000000000000
 N    1.045898911764   -0.988423613267    0.000000000000
 H    2.038075911764   -1.182324613267    0.000000000000
 C    0.087563911764   -2.086951613267    0.000000000000
 H   -0.556501088236   -2.038472613267    0.890708000000
 H   -0.556501088236   -2.038472613267   -0.890708000000
 H    0.640789911764   -3.035376613267    0.000000000000
LI   -5.950628125829    1.825277698274    0.000000000000
