13

 C    1.747299021053    1.354936917970    0.000000000000
 H    1.280679021053    2.347103917970    0.000000000000
 H    2.384448021053    1.250519917970    0.892506000000
 H    2.384448021053    1.250519917970   -0.892506000000
 C    0.649124021053    0.303851917970    0.000000000000
 O   -0.557038978947    0.581905917970    0.000000000000
 N    1.080053021053   -0.996297082030    0.000000000000
 H    2.072230021053   -1.190198082030    0.000000000000
 C    0.121718021053   -2.094825082030    0.000000000000
 H   -0.522346978947   -2.046346082030    0.890708000000
 H   -0.522346978947   -2.046346082030   -0.890708000000
 H    0.674944021053   -3.043250082030    0.000000000000
LI   -6.306251110184    1.907258652168    0.000000000000
