13

 C    1.764376075697    1.351000183588    0.000000000000
 H    1.297756075697    2.343167183588    0.000000000000
 H    2.401525075697    1.246583183588    0.892506000000
 H    2.401525075697    1.246583183588   -0.892506000000
 C    0.666201075697    0.299915183588    0.000000000000
 O   -0.539961924303    0.577969183588    0.000000000000
 N    1.097130075697   -1.000233816412    0.000000000000
 H    2.089307075697   -1.194134816412    0.000000000000
 C    0.138795075697   -2.098761816412    0.000000000000
 H   -0.505269924303   -2.050282816412    0.890708000000
 H   -0.505269924303   -2.050282816412   -0.890708000000
 H    0.692021075697   -3.047186816412    0.000000000000
LI   -6.484062602361    1.948249129115    0.000000000000
