13

 C    1.789991657664    1.345095082016    0.000000000000
 H    1.323371657664    2.337262082016    0.000000000000
 H    2.427140657664    1.240678082016    0.892506000000
 H    2.427140657664    1.240678082016   -0.892506000000
 C    0.691816657664    0.294010082016    0.000000000000
 O   -0.514346342336    0.572064082016    0.000000000000
 N    1.122745657664   -1.006138917984    0.000000000000
 H    2.114922657664   -1.200039917984    0.000000000000
 C    0.164410657664   -2.104666917984    0.000000000000
 H   -0.479654342336   -2.056187917984    0.890708000000
 H   -0.479654342336   -2.056187917984   -0.890708000000
 H    0.717636657664   -3.053091917984    0.000000000000
LI   -6.750779840627    2.009734844536    0.000000000000
