13

 C    1.807068712308    1.341158347634    0.000000000000
 H    1.340448712308    2.333325347634    0.000000000000
 H    2.444217712308    1.236741347634    0.892506000000
 H    2.444217712308    1.236741347634   -0.892506000000
 C    0.708893712308    0.290073347634    0.000000000000
 O   -0.497269287692    0.568127347634    0.000000000000
 N    1.139822712308   -1.010075652366    0.000000000000
 H    2.131999712308   -1.203976652366    0.000000000000
 C    0.181487712308   -2.108603652366    0.000000000000
 H   -0.462577287692   -2.060124652366    0.890708000000
 H   -0.462577287692   -2.060124652366   -0.890708000000
 H    0.734713712308   -3.057028652366    0.000000000000
LI   -6.928591332804    2.050725321483    0.000000000000
