13

 C    1.824145766952    1.337221613252    0.000000000000
 H    1.357525766952    2.329388613252    0.000000000000
 H    2.461294766952    1.232804613252    0.892506000000
 H    2.461294766952    1.232804613252   -0.892506000000
 C    0.725970766952    0.286136613252    0.000000000000
 O   -0.480192233048    0.564190613252    0.000000000000
 N    1.156899766952   -1.014012386748    0.000000000000
 H    2.149076766952   -1.207913386748    0.000000000000
 C    0.198564766952   -2.112540386748    0.000000000000
 H   -0.445500233048   -2.064061386748    0.890708000000
 H   -0.445500233048   -2.064061386748   -0.890708000000
 H    0.751790766952   -3.060965386748    0.000000000000
LI   -7.106402824981    2.091715798430    0.000000000000
