13

 C    1.900992512852    1.319506308534    0.000000000000
 H    1.434372512852    2.311673308534    0.000000000000
 H    2.538141512852    1.215089308534    0.892506000000
 H    2.538141512852    1.215089308534   -0.892506000000
 C    0.802817512852    0.268421308534    0.000000000000
 O   -0.403345487148    0.546475308534    0.000000000000
 N    1.233746512852   -1.031727691466    0.000000000000
 H    2.225923512852   -1.225628691466    0.000000000000
 C    0.275411512852   -2.130255691466    0.000000000000
 H   -0.368653487148   -2.081776691466    0.890708000000
 H   -0.368653487148   -2.081776691466   -0.890708000000
 H    0.828637512852   -3.078680691466    0.000000000000
LI   -7.906554539778    2.276172944691    0.000000000000
