13

 C    1.918069567496    1.315569574152    0.000000000000
 H    1.451449567496    2.307736574152    0.000000000000
 H    2.555218567496    1.211152574152    0.892506000000
 H    2.555218567496    1.211152574152   -0.892506000000
 C    0.819894567496    0.264484574152    0.000000000000
 O   -0.386268432504    0.542538574152    0.000000000000
 N    1.250823567496   -1.035664425848    0.000000000000
 H    2.243000567496   -1.229565425848    0.000000000000
 C    0.292488567496   -2.134192425848    0.000000000000
 H   -0.351576432504   -2.085713425848    0.890708000000
 H   -0.351576432504   -2.085713425848   -0.890708000000
 H    0.845714567496   -3.082617425848    0.000000000000
LI   -8.084366031956    2.317163421638    0.000000000000
