13

 C    1.935146622141    1.311632839771    0.000000000000
 H    1.468526622141    2.303799839771    0.000000000000
 H    2.572295622141    1.207215839771    0.892506000000
 H    2.572295622141    1.207215839771   -0.892506000000
 C    0.836971622141    0.260547839771    0.000000000000
 O   -0.369191377859    0.538601839771    0.000000000000
 N    1.267900622141   -1.039601160229    0.000000000000
 H    2.260077622141   -1.233502160229    0.000000000000
 C    0.309565622141   -2.138129160229    0.000000000000
 H   -0.334499377859   -2.089650160229    0.890708000000
 H   -0.334499377859   -2.089650160229   -0.890708000000
 H    0.862791622141   -3.086554160229    0.000000000000
LI   -8.262177524133    2.358153898585    0.000000000000
