13

 C    1.943685149463    1.309664472580    0.000000000000
 H    1.477065149463    2.301831472580    0.000000000000
 H    2.580834149463    1.205247472580    0.892506000000
 H    2.580834149463    1.205247472580   -0.892506000000
 C    0.845510149463    0.258579472580    0.000000000000
 O   -0.360652850537    0.536633472580    0.000000000000
 N    1.276439149463   -1.041569527420    0.000000000000
 H    2.268616149463   -1.235470527420    0.000000000000
 C    0.318104149463   -2.140097527420    0.000000000000
 H   -0.325960850537   -2.091618527420    0.890708000000
 H   -0.325960850537   -2.091618527420   -0.890708000000
 H    0.871330149463   -3.088522527420    0.000000000000
LI   -8.351083270221    2.378649137059    0.000000000000
