13

 C    1.952223676785    1.307696105389    0.000000000000
 H    1.485603676785    2.299863105389    0.000000000000
 H    2.589372676785    1.203279105389    0.892506000000
 H    2.589372676785    1.203279105389   -0.892506000000
 C    0.854048676785    0.256611105389    0.000000000000
 O   -0.352114323215    0.534665105389    0.000000000000
 N    1.284977676785   -1.043537894611    0.000000000000
 H    2.277154676785   -1.237438894611    0.000000000000
 C    0.326642676785   -2.142065894611    0.000000000000
 H   -0.317422323215   -2.093586894611    0.890708000000
 H   -0.317422323215   -2.093586894611   -0.890708000000
 H    0.879868676785   -3.090490894611    0.000000000000
LI   -8.439989016310    2.399144375532    0.000000000000
