13

 C    1.969300731429    1.303759371007    0.000000000000
 H    1.502680731429    2.295926371007    0.000000000000
 H    2.606449731429    1.199342371007    0.892506000000
 H    2.606449731429    1.199342371007   -0.892506000000
 C    0.871125731429    0.252674371007    0.000000000000
 O   -0.335037268571    0.530728371007    0.000000000000
 N    1.302054731429   -1.047474628993    0.000000000000
 H    2.294231731429   -1.241375628993    0.000000000000
 C    0.343719731429   -2.146002628993    0.000000000000
 H   -0.300345268571   -2.097523628993    0.890708000000
 H   -0.300345268571   -2.097523628993   -0.890708000000
 H    0.896945731429   -3.094427628993    0.000000000000
LI   -8.617800508487    2.440134852479    0.000000000000
