13

 C    1.977839258752    1.301791003816    0.000000000000
 H    1.511219258752    2.293958003816    0.000000000000
 H    2.614988258752    1.197374003816    0.892506000000
 H    2.614988258752    1.197374003816   -0.892506000000
 C    0.879664258752    0.250706003816    0.000000000000
 O   -0.326498741248    0.528760003816    0.000000000000
 N    1.310593258752   -1.049442996184    0.000000000000
 H    2.302770258752   -1.243343996184    0.000000000000
 C    0.352258258752   -2.147970996184    0.000000000000
 H   -0.291806741248   -2.099491996184    0.890708000000
 H   -0.291806741248   -2.099491996184   -0.890708000000
 H    0.905484258752   -3.096395996184    0.000000000000
LI   -8.706706254576    2.460630090953    0.000000000000
