13

 C    1.994916313396    1.297854269435    0.000000000000
 H    1.528296313396    2.290021269435    0.000000000000
 H    2.632065313396    1.193437269435    0.892506000000
 H    2.632065313396    1.193437269435   -0.892506000000
 C    0.896741313396    0.246769269435    0.000000000000
 O   -0.309421686604    0.524823269435    0.000000000000
 N    1.327670313396   -1.053379730565    0.000000000000
 H    2.319847313396   -1.247280730565    0.000000000000
 C    0.369335313396   -2.151907730565    0.000000000000
 H   -0.274729686604   -2.103428730565    0.890708000000
 H   -0.274729686604   -2.103428730565   -0.890708000000
 H    0.922561313396   -3.100332730565    0.000000000000
LI   -8.884517746753    2.501620567900    0.000000000000
