13

 C    2.003454840718    1.295885902244    0.000000000000
 H    1.536834840718    2.288052902244    0.000000000000
 H    2.640603840718    1.191468902244    0.892506000000
 H    2.640603840718    1.191468902244   -0.892506000000
 C    0.905279840718    0.244800902244    0.000000000000
 O   -0.300883159282    0.522854902244    0.000000000000
 N    1.336208840718   -1.055348097756    0.000000000000
 H    2.328385840718   -1.249249097756    0.000000000000
 C    0.377873840718   -2.153876097756    0.000000000000
 H   -0.266191159282   -2.105397097756    0.890708000000
 H   -0.266191159282   -2.105397097756   -0.890708000000
 H    0.931099840718   -3.102301097756    0.000000000000
LI   -8.973423492841    2.522115806373    0.000000000000
