13

 C    2.029070422685    1.289980800671    0.000000000000
 H    1.562450422685    2.282147800671    0.000000000000
 H    2.666219422685    1.185563800671    0.892506000000
 H    2.666219422685    1.185563800671   -0.892506000000
 C    0.930895422685    0.238895800671    0.000000000000
 O   -0.275267577315    0.516949800671    0.000000000000
 N    1.361824422685   -1.061253199329    0.000000000000
 H    2.354001422685   -1.255154199329    0.000000000000
 C    0.403489422685   -2.159781199329    0.000000000000
 H   -0.240575577315   -2.111302199329    0.890708000000
 H   -0.240575577315   -2.111302199329   -0.890708000000
 H    0.956715422685   -3.108206199329    0.000000000000
LI   -9.240140731107    2.583601521794    0.000000000000
