13

 C    2.037608950007    1.288012433480    0.000000000000
 H    1.570988950007    2.280179433480    0.000000000000
 H    2.674757950007    1.183595433480    0.892506000000
 H    2.674757950007    1.183595433480   -0.892506000000
 C    0.939433950007    0.236927433480    0.000000000000
 O   -0.266729049993    0.514981433480    0.000000000000
 N    1.370362950007   -1.063221566520    0.000000000000
 H    2.362539950007   -1.257122566520    0.000000000000
 C    0.412027950007   -2.161749566520    0.000000000000
 H   -0.232037049993   -2.113270566520    0.890708000000
 H   -0.232037049993   -2.113270566520   -0.890708000000
 H    0.965253950007   -3.110174566520    0.000000000000
LI   -9.329046477196    2.604096760267    0.000000000000
