20

 H    3.462905486174    1.348550018920   -0.901000000000
 H    2.260965486174    2.334330018920    0.000000000000
 H    3.462905486174    1.348550018920    0.901000000000
 C    2.838105486174    1.400060018920    0.000000000000
 S    1.656415486174    0.000000018920    0.000000000000
 C    2.838105486174   -1.400059981080    0.000000000000
 H    3.462905486174   -1.348549981080    0.901000000000
 H    2.260965486174   -2.334329981080    0.000000000000
 H    3.462905486174   -1.348549981080   -0.901000000000
NA   -0.204674513826    0.000000018920    2.294760000000
NA   -0.204674513826    0.000000018920   -2.294760000000
 S   -1.504674513826    0.000000018920    0.000000000000
 C   -2.686362655949   -1.400059587977    0.000000000000
 H   -3.311171149961   -1.348553621377    0.900997782303
 H   -2.109224972396   -2.334321605145    0.000000000000
 H   -3.311171149961   -1.348553621377   -0.900997782303
 C   -2.686362900306    1.400059419574    0.000000000000
 H   -3.311171385328    1.348553343924   -0.900997782303
 H   -2.109225379812    2.334321537472    0.000000000000
 H   -3.311171385328    1.348553343924    0.900997782303
