20

 H    3.499383490915    1.348550018920   -0.901000000000
 H    2.297443490915    2.334330018920    0.000000000000
 H    3.499383490915    1.348550018920    0.901000000000
 C    2.874583490915    1.400060018920    0.000000000000
 S    1.692893490915    0.000000018920    0.000000000000
 C    2.874583490915   -1.400059981080    0.000000000000
 H    3.499383490915   -1.348549981080    0.901000000000
 H    2.297443490915   -2.334329981080    0.000000000000
 H    3.499383490915   -1.348549981080   -0.901000000000
NA   -0.168196509085    0.000000018920    2.294760000000
NA   -0.168196509085    0.000000018920   -2.294760000000
 S   -1.568196509085    0.000000018920    0.000000000000
 C   -2.749884651208   -1.400059587977    0.000000000000
 H   -3.374693145220   -1.348553621377    0.900997782303
 H   -2.172746967655   -2.334321605145    0.000000000000
 H   -3.374693145220   -1.348553621377   -0.900997782303
 C   -2.749884895564    1.400059419574    0.000000000000
 H   -3.374693380587    1.348553343924   -0.900997782303
 H   -2.172747375071    2.334321537472    0.000000000000
 H   -3.374693380587    1.348553343924    0.900997782303
