20

 H    3.535861495657    1.348550018920   -0.901000000000
 H    2.333921495657    2.334330018920    0.000000000000
 H    3.535861495657    1.348550018920    0.901000000000
 C    2.911061495657    1.400060018920    0.000000000000
 S    1.729371495657    0.000000018920    0.000000000000
 C    2.911061495657   -1.400059981080    0.000000000000
 H    3.535861495657   -1.348549981080    0.901000000000
 H    2.333921495657   -2.334329981080    0.000000000000
 H    3.535861495657   -1.348549981080   -0.901000000000
NA   -0.131718504343    0.000000018920    2.294760000000
NA   -0.131718504343    0.000000018920   -2.294760000000
 S   -1.631718504343    0.000000018920    0.000000000000
 C   -2.813406646466   -1.400059587977    0.000000000000
 H   -3.438215140479   -1.348553621377    0.900997782303
 H   -2.236268962913   -2.334321605145    0.000000000000
 H   -3.438215140479   -1.348553621377   -0.900997782303
 C   -2.813406890823    1.400059419574    0.000000000000
 H   -3.438215375846    1.348553343924   -0.900997782303
 H   -2.236269370329    2.334321537472    0.000000000000
 H   -3.438215375846    1.348553343924    0.900997782303
