20

 H    3.572339500398    1.348550018920   -0.901000000000
 H    2.370399500398    2.334330018920    0.000000000000
 H    3.572339500398    1.348550018920    0.901000000000
 C    2.947539500398    1.400060018920    0.000000000000
 S    1.765849500398    0.000000018920    0.000000000000
 C    2.947539500398   -1.400059981080    0.000000000000
 H    3.572339500398   -1.348549981080    0.901000000000
 H    2.370399500398   -2.334329981080    0.000000000000
 H    3.572339500398   -1.348549981080   -0.901000000000
NA   -0.095240499602    0.000000018920    2.294760000000
NA   -0.095240499602    0.000000018920   -2.294760000000
 S   -1.695240499602    0.000000018920    0.000000000000
 C   -2.876928641725   -1.400059587977    0.000000000000
 H   -3.501737135737   -1.348553621377    0.900997782303
 H   -2.299790958172   -2.334321605145    0.000000000000
 H   -3.501737135737   -1.348553621377   -0.900997782303
 C   -2.876928886082    1.400059419574    0.000000000000
 H   -3.501737371104    1.348553343924   -0.900997782303
 H   -2.299791365588    2.334321537472    0.000000000000
 H   -3.501737371104    1.348553343924    0.900997782303
