20

 H    3.681773514622    1.348550018920   -0.901000000000
 H    2.479833514622    2.334330018920    0.000000000000
 H    3.681773514622    1.348550018920    0.901000000000
 C    3.056973514622    1.400060018920    0.000000000000
 S    1.875283514622    0.000000018920    0.000000000000
 C    3.056973514622   -1.400059981080    0.000000000000
 H    3.681773514622   -1.348549981080    0.901000000000
 H    2.479833514622   -2.334329981080    0.000000000000
 H    3.681773514622   -1.348549981080   -0.901000000000
NA    0.014193514622    0.000000018920    2.294760000000
NA    0.014193514622    0.000000018920   -2.294760000000
 S   -1.885806485378    0.000000018920    0.000000000000
 C   -3.067494627501   -1.400059587977    0.000000000000
 H   -3.692303121513   -1.348553621377    0.900997782303
 H   -2.490356943947   -2.334321605145    0.000000000000
 H   -3.692303121513   -1.348553621377   -0.900997782303
 C   -3.067494871857    1.400059419574    0.000000000000
 H   -3.692303356880    1.348553343924   -0.900997782303
 H   -2.490357351363    2.334321537472    0.000000000000
 H   -3.692303356880    1.348553343924    0.900997782303
