20

 H    3.791207528847    1.348550018920   -0.901000000000
 H    2.589267528847    2.334330018920    0.000000000000
 H    3.791207528847    1.348550018920    0.901000000000
 C    3.166407528847    1.400060018920    0.000000000000
 S    1.984717528847    0.000000018920    0.000000000000
 C    3.166407528847   -1.400059981080    0.000000000000
 H    3.791207528847   -1.348549981080    0.901000000000
 H    2.589267528847   -2.334329981080    0.000000000000
 H    3.791207528847   -1.348549981080   -0.901000000000
NA    0.123627528847    0.000000018920    2.294760000000
NA    0.123627528847    0.000000018920   -2.294760000000
 S   -2.076372471153    0.000000018920    0.000000000000
 C   -3.258060613276   -1.400059587977    0.000000000000
 H   -3.882869107288   -1.348553621377    0.900997782303
 H   -2.680922929723   -2.334321605145    0.000000000000
 H   -3.882869107288   -1.348553621377   -0.900997782303
 C   -3.258060857633    1.400059419574    0.000000000000
 H   -3.882869342655    1.348553343924   -0.900997782303
 H   -2.680923337139    2.334321537472    0.000000000000
 H   -3.882869342655    1.348553343924    0.900997782303
