20

 H    3.864163538330    1.348550018920   -0.901000000000
 H    2.662223538330    2.334330018920    0.000000000000
 H    3.864163538330    1.348550018920    0.901000000000
 C    3.239363538330    1.400060018920    0.000000000000
 S    2.057673538330    0.000000018920    0.000000000000
 C    3.239363538330   -1.400059981080    0.000000000000
 H    3.864163538330   -1.348549981080    0.901000000000
 H    2.662223538330   -2.334329981080    0.000000000000
 H    3.864163538330   -1.348549981080   -0.901000000000
NA    0.196583538330    0.000000018920    2.294760000000
NA    0.196583538330    0.000000018920   -2.294760000000
 S   -2.203416461670    0.000000018920    0.000000000000
 C   -3.385104603793   -1.400059587977    0.000000000000
 H   -4.009913097805   -1.348553621377    0.900997782303
 H   -2.807966920240   -2.334321605145    0.000000000000
 H   -4.009913097805   -1.348553621377   -0.900997782303
 C   -3.385104848150    1.400059419574    0.000000000000
 H   -4.009913333172    1.348553343924   -0.900997782303
 H   -2.807967327656    2.334321537472    0.000000000000
 H   -4.009913333172    1.348553343924    0.900997782303
