20

 H    3.937119547813    1.348550018920   -0.901000000000
 H    2.735179547813    2.334330018920    0.000000000000
 H    3.937119547813    1.348550018920    0.901000000000
 C    3.312319547813    1.400060018920    0.000000000000
 S    2.130629547813    0.000000018920    0.000000000000
 C    3.312319547813   -1.400059981080    0.000000000000
 H    3.937119547813   -1.348549981080    0.901000000000
 H    2.735179547813   -2.334329981080    0.000000000000
 H    3.937119547813   -1.348549981080   -0.901000000000
NA    0.269539547813    0.000000018920    2.294760000000
NA    0.269539547813    0.000000018920   -2.294760000000
 S   -2.330460452187    0.000000018920    0.000000000000
 C   -3.512148594310   -1.400059587977    0.000000000000
 H   -4.136957088322   -1.348553621377    0.900997782303
 H   -2.935010910757   -2.334321605145    0.000000000000
 H   -4.136957088322   -1.348553621377   -0.900997782303
 C   -3.512148838667    1.400059419574    0.000000000000
 H   -4.136957323689    1.348553343924   -0.900997782303
 H   -2.935011318173    2.334321537472    0.000000000000
 H   -4.136957323689    1.348553343924    0.900997782303
