20

 H    4.083031566779    1.348550018920   -0.901000000000
 H    2.881091566779    2.334330018920    0.000000000000
 H    4.083031566779    1.348550018920    0.901000000000
 C    3.458231566779    1.400060018920    0.000000000000
 S    2.276541566779    0.000000018920    0.000000000000
 C    3.458231566779   -1.400059981080    0.000000000000
 H    4.083031566779   -1.348549981080    0.901000000000
 H    2.881091566779   -2.334329981080    0.000000000000
 H    4.083031566779   -1.348549981080   -0.901000000000
NA    0.415451566779    0.000000018920    2.294760000000
NA    0.415451566779    0.000000018920   -2.294760000000
 S   -2.584548433221    0.000000018920    0.000000000000
 C   -3.766236575344   -1.400059587977    0.000000000000
 H   -4.391045069357   -1.348553621377    0.900997782303
 H   -3.189098891791   -2.334321605145    0.000000000000
 H   -4.391045069357   -1.348553621377   -0.900997782303
 C   -3.766236819701    1.400059419574    0.000000000000
 H   -4.391045304724    1.348553343924   -0.900997782303
 H   -3.189099299207    2.334321537472    0.000000000000
 H   -4.391045304724    1.348553343924    0.900997782303
