20

 H    4.155987576261    1.348550018920   -0.901000000000
 H    2.954047576261    2.334330018920    0.000000000000
 H    4.155987576261    1.348550018920    0.901000000000
 C    3.531187576261    1.400060018920    0.000000000000
 S    2.349497576261    0.000000018920    0.000000000000
 C    3.531187576261   -1.400059981080    0.000000000000
 H    4.155987576261   -1.348549981080    0.901000000000
 H    2.954047576261   -2.334329981080    0.000000000000
 H    4.155987576261   -1.348549981080   -0.901000000000
NA    0.488407576261    0.000000018920    2.294760000000
NA    0.488407576261    0.000000018920   -2.294760000000
 S   -2.711592423739    0.000000018920    0.000000000000
 C   -3.893280565862   -1.400059587977    0.000000000000
 H   -4.518089059874   -1.348553621377    0.900997782303
 H   -3.316142882308   -2.334321605145    0.000000000000
 H   -4.518089059874   -1.348553621377   -0.900997782303
 C   -3.893280810218    1.400059419574    0.000000000000
 H   -4.518089295241    1.348553343924   -0.900997782303
 H   -3.316143289724    2.334321537472    0.000000000000
 H   -4.518089295241    1.348553343924    0.900997782303
