20

 H    4.192465581003    1.348550018920   -0.901000000000
 H    2.990525581003    2.334330018920    0.000000000000
 H    4.192465581003    1.348550018920    0.901000000000
 C    3.567665581003    1.400060018920    0.000000000000
 S    2.385975581003    0.000000018920    0.000000000000
 C    3.567665581003   -1.400059981080    0.000000000000
 H    4.192465581003   -1.348549981080    0.901000000000
 H    2.990525581003   -2.334329981080    0.000000000000
 H    4.192465581003   -1.348549981080   -0.901000000000
NA    0.524885581003    0.000000018920    2.294760000000
NA    0.524885581003    0.000000018920   -2.294760000000
 S   -2.775114418997    0.000000018920    0.000000000000
 C   -3.956802561120   -1.400059587977    0.000000000000
 H   -4.581611055132   -1.348553621377    0.900997782303
 H   -3.379664877567   -2.334321605145    0.000000000000
 H   -4.581611055132   -1.348553621377   -0.900997782303
 C   -3.956802805477    1.400059419574    0.000000000000
 H   -4.581611290499    1.348553343924   -0.900997782303
 H   -3.379665284983    2.334321537472    0.000000000000
 H   -4.581611290499    1.348553343924    0.900997782303
