20

 H    4.301899595227    1.348550018920   -0.901000000000
 H    3.099959595227    2.334330018920    0.000000000000
 H    4.301899595227    1.348550018920    0.901000000000
 C    3.677099595227    1.400060018920    0.000000000000
 S    2.495409595227    0.000000018920    0.000000000000
 C    3.677099595227   -1.400059981080    0.000000000000
 H    4.301899595227   -1.348549981080    0.901000000000
 H    3.099959595227   -2.334329981080    0.000000000000
 H    4.301899595227   -1.348549981080   -0.901000000000
NA    0.634319595227    0.000000018920    2.294760000000
NA    0.634319595227    0.000000018920   -2.294760000000
 S   -2.965680404773    0.000000018920    0.000000000000
 C   -4.147368546896   -1.400059587977    0.000000000000
 H   -4.772177040908   -1.348553621377    0.900997782303
 H   -3.570230863342   -2.334321605145    0.000000000000
 H   -4.772177040908   -1.348553621377   -0.900997782303
 C   -4.147368791252    1.400059419574    0.000000000000
 H   -4.772177276275    1.348553343924   -0.900997782303
 H   -3.570231270758    2.334321537472    0.000000000000
 H   -4.772177276275    1.348553343924    0.900997782303
