20

 H    4.338377599969    1.348550018920   -0.901000000000
 H    3.136437599969    2.334330018920    0.000000000000
 H    4.338377599969    1.348550018920    0.901000000000
 C    3.713577599969    1.400060018920    0.000000000000
 S    2.531887599969    0.000000018920    0.000000000000
 C    3.713577599969   -1.400059981080    0.000000000000
 H    4.338377599969   -1.348549981080    0.901000000000
 H    3.136437599969   -2.334329981080    0.000000000000
 H    4.338377599969   -1.348549981080   -0.901000000000
NA    0.670797599969    0.000000018920    2.294760000000
NA    0.670797599969    0.000000018920   -2.294760000000
 S   -3.029202400031    0.000000018920    0.000000000000
 C   -4.210890542154   -1.400059587977    0.000000000000
 H   -4.835699036166   -1.348553621377    0.900997782303
 H   -3.633752858601   -2.334321605145    0.000000000000
 H   -4.835699036166   -1.348553621377   -0.900997782303
 C   -4.210890786511    1.400059419574    0.000000000000
 H   -4.835699271533    1.348553343924   -0.900997782303
 H   -3.633753266017    2.334321537472    0.000000000000
 H   -4.835699271533    1.348553343924    0.900997782303
