20

 H    4.447811614193    1.348550018920   -0.901000000000
 H    3.245871614193    2.334330018920    0.000000000000
 H    4.447811614193    1.348550018920    0.901000000000
 C    3.823011614193    1.400060018920    0.000000000000
 S    2.641321614193    0.000000018920    0.000000000000
 C    3.823011614193   -1.400059981080    0.000000000000
 H    4.447811614193   -1.348549981080    0.901000000000
 H    3.245871614193   -2.334329981080    0.000000000000
 H    4.447811614193   -1.348549981080   -0.901000000000
NA    0.780231614193    0.000000018920    2.294760000000
NA    0.780231614193    0.000000018920   -2.294760000000
 S   -3.219768385807    0.000000018920    0.000000000000
 C   -4.401456527930   -1.400059587977    0.000000000000
 H   -5.026265021942   -1.348553621377    0.900997782303
 H   -3.824318844377   -2.334321605145    0.000000000000
 H   -5.026265021942   -1.348553621377   -0.900997782303
 C   -4.401456772286    1.400059419574    0.000000000000
 H   -5.026265257309    1.348553343924   -0.900997782303
 H   -3.824319251793    2.334321537472    0.000000000000
 H   -5.026265257309    1.348553343924    0.900997782303
