20

 H    4.520767623676    1.348550018920   -0.901000000000
 H    3.318827623676    2.334330018920    0.000000000000
 H    4.520767623676    1.348550018920    0.901000000000
 C    3.895967623676    1.400060018920    0.000000000000
 S    2.714277623676    0.000000018920    0.000000000000
 C    3.895967623676   -1.400059981080    0.000000000000
 H    4.520767623676   -1.348549981080    0.901000000000
 H    3.318827623676   -2.334329981080    0.000000000000
 H    4.520767623676   -1.348549981080   -0.901000000000
NA    0.853187623676    0.000000018920    2.294760000000
NA    0.853187623676    0.000000018920   -2.294760000000
 S   -3.346812376324    0.000000018920    0.000000000000
 C   -4.528500518447   -1.400059587977    0.000000000000
 H   -5.153309012459   -1.348553621377    0.900997782303
 H   -3.951362834894   -2.334321605145    0.000000000000
 H   -5.153309012459   -1.348553621377   -0.900997782303
 C   -4.528500762803    1.400059419574    0.000000000000
 H   -5.153309247826    1.348553343924   -0.900997782303
 H   -3.951363242310    2.334321537472    0.000000000000
 H   -5.153309247826    1.348553343924    0.900997782303
