20

 H    4.557245628418    1.348550018920   -0.901000000000
 H    3.355305628418    2.334330018920    0.000000000000
 H    4.557245628418    1.348550018920    0.901000000000
 C    3.932445628418    1.400060018920    0.000000000000
 S    2.750755628418    0.000000018920    0.000000000000
 C    3.932445628418   -1.400059981080    0.000000000000
 H    4.557245628418   -1.348549981080    0.901000000000
 H    3.355305628418   -2.334329981080    0.000000000000
 H    4.557245628418   -1.348549981080   -0.901000000000
NA    0.889665628418    0.000000018920    2.294760000000
NA    0.889665628418    0.000000018920   -2.294760000000
 S   -3.410334371582    0.000000018920    0.000000000000
 C   -4.592022513705   -1.400059587977    0.000000000000
 H   -5.216831007717   -1.348553621377    0.900997782303
 H   -4.014884830152   -2.334321605145    0.000000000000
 H   -5.216831007717   -1.348553621377   -0.900997782303
 C   -4.592022758062    1.400059419574    0.000000000000
 H   -5.216831243084    1.348553343924   -0.900997782303
 H   -4.014885237568    2.334321537472    0.000000000000
 H   -5.216831243084    1.348553343924    0.900997782303
