20

 H    4.593723633159    1.348550018920   -0.901000000000
 H    3.391783633159    2.334330018920    0.000000000000
 H    4.593723633159    1.348550018920    0.901000000000
 C    3.968923633159    1.400060018920    0.000000000000
 S    2.787233633159    0.000000018920    0.000000000000
 C    3.968923633159   -1.400059981080    0.000000000000
 H    4.593723633159   -1.348549981080    0.901000000000
 H    3.391783633159   -2.334329981080    0.000000000000
 H    4.593723633159   -1.348549981080   -0.901000000000
NA    0.926143633159    0.000000018920    2.294760000000
NA    0.926143633159    0.000000018920   -2.294760000000
 S   -3.473856366841    0.000000018920    0.000000000000
 C   -4.655544508964   -1.400059587977    0.000000000000
 H   -5.280353002976   -1.348553621377    0.900997782303
 H   -4.078406825411   -2.334321605145    0.000000000000
 H   -5.280353002976   -1.348553621377   -0.900997782303
 C   -4.655544753320    1.400059419574    0.000000000000
 H   -5.280353238343    1.348553343924   -0.900997782303
 H   -4.078407232827    2.334321537472    0.000000000000
 H   -5.280353238343    1.348553343924    0.900997782303
