20

 H    4.630201637901    1.348550018920   -0.901000000000
 H    3.428261637901    2.334330018920    0.000000000000
 H    4.630201637901    1.348550018920    0.901000000000
 C    4.005401637901    1.400060018920    0.000000000000
 S    2.823711637901    0.000000018920    0.000000000000
 C    4.005401637901   -1.400059981080    0.000000000000
 H    4.630201637901   -1.348549981080    0.901000000000
 H    3.428261637901   -2.334329981080    0.000000000000
 H    4.630201637901   -1.348549981080   -0.901000000000
NA    0.962621637901    0.000000018920    2.294760000000
NA    0.962621637901    0.000000018920   -2.294760000000
 S   -3.537378362099    0.000000018920    0.000000000000
 C   -4.719066504222   -1.400059587977    0.000000000000
 H   -5.343874998235   -1.348553621377    0.900997782303
 H   -4.141928820669   -2.334321605145    0.000000000000
 H   -5.343874998235   -1.348553621377   -0.900997782303
 C   -4.719066748579    1.400059419574    0.000000000000
 H   -5.343875233602    1.348553343924   -0.900997782303
 H   -4.141929228085    2.334321537472    0.000000000000
 H   -5.343875233602    1.348553343924    0.900997782303
