20

 H    4.739635652125    1.348550018920   -0.901000000000
 H    3.537695652125    2.334330018920    0.000000000000
 H    4.739635652125    1.348550018920    0.901000000000
 C    4.114835652125    1.400060018920    0.000000000000
 S    2.933145652125    0.000000018920    0.000000000000
 C    4.114835652125   -1.400059981080    0.000000000000
 H    4.739635652125   -1.348549981080    0.901000000000
 H    3.537695652125   -2.334329981080    0.000000000000
 H    4.739635652125   -1.348549981080   -0.901000000000
NA    1.072055652125    0.000000018920    2.294760000000
NA    1.072055652125    0.000000018920   -2.294760000000
 S   -3.727944347875    0.000000018920    0.000000000000
 C   -4.909632489998   -1.400059587977    0.000000000000
 H   -5.534440984010   -1.348553621377    0.900997782303
 H   -4.332494806445   -2.334321605145    0.000000000000
 H   -5.534440984010   -1.348553621377   -0.900997782303
 C   -4.909632734355    1.400059419574    0.000000000000
 H   -5.534441219377    1.348553343924   -0.900997782303
 H   -4.332495213861    2.334321537472    0.000000000000
 H   -5.534441219377    1.348553343924    0.900997782303
