20

 H    4.885547671091    1.348550018920   -0.901000000000
 H    3.683607671091    2.334330018920    0.000000000000
 H    4.885547671091    1.348550018920    0.901000000000
 C    4.260747671091    1.400060018920    0.000000000000
 S    3.079057671091    0.000000018920    0.000000000000
 C    4.260747671091   -1.400059981080    0.000000000000
 H    4.885547671091   -1.348549981080    0.901000000000
 H    3.683607671091   -2.334329981080    0.000000000000
 H    4.885547671091   -1.348549981080   -0.901000000000
NA    1.217967671091    0.000000018920    2.294760000000
NA    1.217967671091    0.000000018920   -2.294760000000
 S   -3.982032328909    0.000000018920    0.000000000000
 C   -5.163720471032   -1.400059587977    0.000000000000
 H   -5.788528965044   -1.348553621377    0.900997782303
 H   -4.586582787479   -2.334321605145    0.000000000000
 H   -5.788528965044   -1.348553621377   -0.900997782303
 C   -5.163720715389    1.400059419574    0.000000000000
 H   -5.788529200411    1.348553343924   -0.900997782303
 H   -4.586583194895    2.334321537472    0.000000000000
 H   -5.788529200411    1.348553343924    0.900997782303
