20

 H    4.994981685315    1.348550018920   -0.901000000000
 H    3.793041685315    2.334330018920    0.000000000000
 H    4.994981685315    1.348550018920    0.901000000000
 C    4.370181685315    1.400060018920    0.000000000000
 S    3.188491685315    0.000000018920    0.000000000000
 C    4.370181685315   -1.400059981080    0.000000000000
 H    4.994981685315   -1.348549981080    0.901000000000
 H    3.793041685315   -2.334329981080    0.000000000000
 H    4.994981685315   -1.348549981080   -0.901000000000
NA    1.327401685315    0.000000018920    2.294760000000
NA    1.327401685315    0.000000018920   -2.294760000000
 S   -4.172598314685    0.000000018920    0.000000000000
 C   -5.354286456808   -1.400059587977    0.000000000000
 H   -5.979094950820   -1.348553621377    0.900997782303
 H   -4.777148773255   -2.334321605145    0.000000000000
 H   -5.979094950820   -1.348553621377   -0.900997782303
 C   -5.354286701164    1.400059419574    0.000000000000
 H   -5.979095186187    1.348553343924   -0.900997782303
 H   -4.777149180671    2.334321537472    0.000000000000
 H   -5.979095186187    1.348553343924    0.900997782303
