20

 H    5.067937694798    1.348550018920   -0.901000000000
 H    3.865997694798    2.334330018920    0.000000000000
 H    5.067937694798    1.348550018920    0.901000000000
 C    4.443137694798    1.400060018920    0.000000000000
 S    3.261447694798    0.000000018920    0.000000000000
 C    4.443137694798   -1.400059981080    0.000000000000
 H    5.067937694798   -1.348549981080    0.901000000000
 H    3.865997694798   -2.334329981080    0.000000000000
 H    5.067937694798   -1.348549981080   -0.901000000000
NA    1.400357694798    0.000000018920    2.294760000000
NA    1.400357694798    0.000000018920   -2.294760000000
 S   -4.299642305202    0.000000018920    0.000000000000
 C   -5.481330447325   -1.400059587977    0.000000000000
 H   -6.106138941337   -1.348553621377    0.900997782303
 H   -4.904192763772   -2.334321605145    0.000000000000
 H   -6.106138941337   -1.348553621377   -0.900997782303
 C   -5.481330691681    1.400059419574    0.000000000000
 H   -6.106139176704    1.348553343924   -0.900997782303
 H   -4.904193171188    2.334321537472    0.000000000000
 H   -6.106139176704    1.348553343924    0.900997782303
