20

 H    5.177371709023    1.348550018920   -0.901000000000
 H    3.975431709023    2.334330018920    0.000000000000
 H    5.177371709023    1.348550018920    0.901000000000
 C    4.552571709023    1.400060018920    0.000000000000
 S    3.370881709023    0.000000018920    0.000000000000
 C    4.552571709023   -1.400059981080    0.000000000000
 H    5.177371709023   -1.348549981080    0.901000000000
 H    3.975431709023   -2.334329981080    0.000000000000
 H    5.177371709023   -1.348549981080   -0.901000000000
NA    1.509791709023    0.000000018920    2.294760000000
NA    1.509791709023    0.000000018920   -2.294760000000
 S   -4.490208290977    0.000000018920    0.000000000000
 C   -5.671896433100   -1.400059587977    0.000000000000
 H   -6.296704927113   -1.348553621377    0.900997782303
 H   -5.094758749547   -2.334321605145    0.000000000000
 H   -6.296704927113   -1.348553621377   -0.900997782303
 C   -5.671896677457    1.400059419574    0.000000000000
 H   -6.296705162480    1.348553343924   -0.900997782303
 H   -5.094759156963    2.334321537472    0.000000000000
 H   -6.296705162480    1.348553343924    0.900997782303
