20

 H    5.250327718505    1.348550018920   -0.901000000000
 H    4.048387718505    2.334330018920    0.000000000000
 H    5.250327718505    1.348550018920    0.901000000000
 C    4.625527718505    1.400060018920    0.000000000000
 S    3.443837718505    0.000000018920    0.000000000000
 C    4.625527718505   -1.400059981080    0.000000000000
 H    5.250327718505   -1.348549981080    0.901000000000
 H    4.048387718505   -2.334329981080    0.000000000000
 H    5.250327718505   -1.348549981080   -0.901000000000
NA    1.582747718505    0.000000018920    2.294760000000
NA    1.582747718505    0.000000018920   -2.294760000000
 S   -4.617252281495    0.000000018920    0.000000000000
 C   -5.798940423618   -1.400059587977    0.000000000000
 H   -6.423748917630   -1.348553621377    0.900997782303
 H   -5.221802740064   -2.334321605145    0.000000000000
 H   -6.423748917630   -1.348553621377   -0.900997782303
 C   -5.798940667974    1.400059419574    0.000000000000
 H   -6.423749152997    1.348553343924   -0.900997782303
 H   -5.221803147480    2.334321537472    0.000000000000
 H   -6.423749152997    1.348553343924    0.900997782303
