20

 H    5.323283727988    1.348550018920   -0.901000000000
 H    4.121343727988    2.334330018920    0.000000000000
 H    5.323283727988    1.348550018920    0.901000000000
 C    4.698483727988    1.400060018920    0.000000000000
 S    3.516793727988    0.000000018920    0.000000000000
 C    4.698483727988   -1.400059981080    0.000000000000
 H    5.323283727988   -1.348549981080    0.901000000000
 H    4.121343727988   -2.334329981080    0.000000000000
 H    5.323283727988   -1.348549981080   -0.901000000000
NA    1.655703727988    0.000000018920    2.294760000000
NA    1.655703727988    0.000000018920   -2.294760000000
 S   -4.744296272012    0.000000018920    0.000000000000
 C   -5.925984414135   -1.400059587977    0.000000000000
 H   -6.550792908147   -1.348553621377    0.900997782303
 H   -5.348846730581   -2.334321605145    0.000000000000
 H   -6.550792908147   -1.348553621377   -0.900997782303
 C   -5.925984658491    1.400059419574    0.000000000000
 H   -6.550793143514    1.348553343924   -0.900997782303
 H   -5.348847137997    2.334321537472    0.000000000000
 H   -6.550793143514    1.348553343924    0.900997782303
