20

 H    5.432717742213    1.348550018920   -0.901000000000
 H    4.230777742213    2.334330018920    0.000000000000
 H    5.432717742213    1.348550018920    0.901000000000
 C    4.807917742213    1.400060018920    0.000000000000
 S    3.626227742213    0.000000018920    0.000000000000
 C    4.807917742213   -1.400059981080    0.000000000000
 H    5.432717742213   -1.348549981080    0.901000000000
 H    4.230777742213   -2.334329981080    0.000000000000
 H    5.432717742213   -1.348549981080   -0.901000000000
NA    1.765137742213    0.000000018920    2.294760000000
NA    1.765137742213    0.000000018920   -2.294760000000
 S   -4.934862257787    0.000000018920    0.000000000000
 C   -6.116550399910   -1.400059587977    0.000000000000
 H   -6.741358893922   -1.348553621377    0.900997782303
 H   -5.539412716357   -2.334321605145    0.000000000000
 H   -6.741358893922   -1.348553621377   -0.900997782303
 C   -6.116550644267    1.400059419574    0.000000000000
 H   -6.741359129289    1.348553343924   -0.900997782303
 H   -5.539413123773    2.334321537472    0.000000000000
 H   -6.741359129289    1.348553343924    0.900997782303
