20

 H    5.505673751696    1.348550018920   -0.901000000000
 H    4.303733751696    2.334330018920    0.000000000000
 H    5.505673751696    1.348550018920    0.901000000000
 C    4.880873751696    1.400060018920    0.000000000000
 S    3.699183751696    0.000000018920    0.000000000000
 C    4.880873751696   -1.400059981080    0.000000000000
 H    5.505673751696   -1.348549981080    0.901000000000
 H    4.303733751696   -2.334329981080    0.000000000000
 H    5.505673751696   -1.348549981080   -0.901000000000
NA    1.838093751696    0.000000018920    2.294760000000
NA    1.838093751696    0.000000018920   -2.294760000000
 S   -5.061906248304    0.000000018920    0.000000000000
 C   -6.243594390427   -1.400059587977    0.000000000000
 H   -6.868402884439   -1.348553621377    0.900997782303
 H   -5.666456706874   -2.334321605145    0.000000000000
 H   -6.868402884439   -1.348553621377   -0.900997782303
 C   -6.243594634784    1.400059419574    0.000000000000
 H   -6.868403119806    1.348553343924   -0.900997782303
 H   -5.666457114290    2.334321537472    0.000000000000
 H   -6.868403119806    1.348553343924    0.900997782303
