20

 H    5.651585770662    1.348550018920   -0.901000000000
 H    4.449645770662    2.334330018920    0.000000000000
 H    5.651585770662    1.348550018920    0.901000000000
 C    5.026785770662    1.400060018920    0.000000000000
 S    3.845095770662    0.000000018920    0.000000000000
 C    5.026785770662   -1.400059981080    0.000000000000
 H    5.651585770662   -1.348549981080    0.901000000000
 H    4.449645770662   -2.334329981080    0.000000000000
 H    5.651585770662   -1.348549981080   -0.901000000000
NA    1.984005770662    0.000000018920    2.294760000000
NA    1.984005770662    0.000000018920   -2.294760000000
 S   -5.315994229338    0.000000018920    0.000000000000
 C   -6.497682371461   -1.400059587977    0.000000000000
 H   -7.122490865473   -1.348553621377    0.900997782303
 H   -5.920544687908   -2.334321605145    0.000000000000
 H   -7.122490865473   -1.348553621377   -0.900997782303
 C   -6.497682615818    1.400059419574    0.000000000000
 H   -7.122491100840    1.348553343924   -0.900997782303
 H   -5.920545095324    2.334321537472    0.000000000000
 H   -7.122491100840    1.348553343924    0.900997782303
