20

 H    5.797497789627    1.348550018920   -0.901000000000
 H    4.595557789627    2.334330018920    0.000000000000
 H    5.797497789627    1.348550018920    0.901000000000
 C    5.172697789627    1.400060018920    0.000000000000
 S    3.991007789627    0.000000018920    0.000000000000
 C    5.172697789627   -1.400059981080    0.000000000000
 H    5.797497789627   -1.348549981080    0.901000000000
 H    4.595557789627   -2.334329981080    0.000000000000
 H    5.797497789627   -1.348549981080   -0.901000000000
NA    2.129917789627    0.000000018920    2.294760000000
NA    2.129917789627    0.000000018920   -2.294760000000
 S   -5.570082210373    0.000000018920    0.000000000000
 C   -6.751770352496   -1.400059587977    0.000000000000
 H   -7.376578846508   -1.348553621377    0.900997782303
 H   -6.174632668942   -2.334321605145    0.000000000000
 H   -7.376578846508   -1.348553621377   -0.900997782303
 C   -6.751770596852    1.400059419574    0.000000000000
 H   -7.376579081875    1.348553343924   -0.900997782303
 H   -6.174633076358    2.334321537472    0.000000000000
 H   -7.376579081875    1.348553343924    0.900997782303
