20

 H    5.906931803852    1.348550018920   -0.901000000000
 H    4.704991803852    2.334330018920    0.000000000000
 H    5.906931803852    1.348550018920    0.901000000000
 C    5.282131803852    1.400060018920    0.000000000000
 S    4.100441803852    0.000000018920    0.000000000000
 C    5.282131803852   -1.400059981080    0.000000000000
 H    5.906931803852   -1.348549981080    0.901000000000
 H    4.704991803852   -2.334329981080    0.000000000000
 H    5.906931803852   -1.348549981080   -0.901000000000
NA    2.239351803852    0.000000018920    2.294760000000
NA    2.239351803852    0.000000018920   -2.294760000000
 S   -5.760648196148    0.000000018920    0.000000000000
 C   -6.942336338271   -1.400059587977    0.000000000000
 H   -7.567144832283   -1.348553621377    0.900997782303
 H   -6.365198654718   -2.334321605145    0.000000000000
 H   -7.567144832283   -1.348553621377   -0.900997782303
 C   -6.942336582628    1.400059419574    0.000000000000
 H   -7.567145067650    1.348553343924   -0.900997782303
 H   -6.365199062134    2.334321537472    0.000000000000
 H   -7.567145067650    1.348553343924    0.900997782303
