20

 H    6.089321827559    1.348550018920   -0.901000000000
 H    4.887381827559    2.334330018920    0.000000000000
 H    6.089321827559    1.348550018920    0.901000000000
 C    5.464521827559    1.400060018920    0.000000000000
 S    4.282831827559    0.000000018920    0.000000000000
 C    5.464521827559   -1.400059981080    0.000000000000
 H    6.089321827559   -1.348549981080    0.901000000000
 H    4.887381827559   -2.334329981080    0.000000000000
 H    6.089321827559   -1.348549981080   -0.901000000000
NA    2.421741827559    0.000000018920    2.294760000000
NA    2.421741827559    0.000000018920   -2.294760000000
 S   -6.078258172441    0.000000018920    0.000000000000
 C   -7.259946314564   -1.400059587977    0.000000000000
 H   -7.884754808576   -1.348553621377    0.900997782303
 H   -6.682808631011   -2.334321605145    0.000000000000
 H   -7.884754808576   -1.348553621377   -0.900997782303
 C   -7.259946558920    1.400059419574    0.000000000000
 H   -7.884755043943    1.348553343924   -0.900997782303
 H   -6.682809038427    2.334321537472    0.000000000000
 H   -7.884755043943    1.348553343924    0.900997782303
