20

 H    6.125799832301    1.348550018920   -0.901000000000
 H    4.923859832301    2.334330018920    0.000000000000
 H    6.125799832301    1.348550018920    0.901000000000
 C    5.500999832301    1.400060018920    0.000000000000
 S    4.319309832301    0.000000018920    0.000000000000
 C    5.500999832301   -1.400059981080    0.000000000000
 H    6.125799832301   -1.348549981080    0.901000000000
 H    4.923859832301   -2.334329981080    0.000000000000
 H    6.125799832301   -1.348549981080   -0.901000000000
NA    2.458219832301    0.000000018920    2.294760000000
NA    2.458219832301    0.000000018920   -2.294760000000
 S   -6.141780167699    0.000000018920    0.000000000000
 C   -7.323468309822   -1.400059587977    0.000000000000
 H   -7.948276803834   -1.348553621377    0.900997782303
 H   -6.746330626269   -2.334321605145    0.000000000000
 H   -7.948276803834   -1.348553621377   -0.900997782303
 C   -7.323468554179    1.400059419574    0.000000000000
 H   -7.948277039201    1.348553343924   -0.900997782303
 H   -6.746331033685    2.334321537472    0.000000000000
 H   -7.948277039201    1.348553343924    0.900997782303
