20

 H    6.162277837042    1.348550018920   -0.901000000000
 H    4.960337837042    2.334330018920    0.000000000000
 H    6.162277837042    1.348550018920    0.901000000000
 C    5.537477837042    1.400060018920    0.000000000000
 S    4.355787837042    0.000000018920    0.000000000000
 C    5.537477837042   -1.400059981080    0.000000000000
 H    6.162277837042   -1.348549981080    0.901000000000
 H    4.960337837042   -2.334329981080    0.000000000000
 H    6.162277837042   -1.348549981080   -0.901000000000
NA    2.494697837042    0.000000018920    2.294760000000
NA    2.494697837042    0.000000018920   -2.294760000000
 S   -6.205302162958    0.000000018920    0.000000000000
 C   -7.386990305081   -1.400059587977    0.000000000000
 H   -8.011798799093   -1.348553621377    0.900997782303
 H   -6.809852621528   -2.334321605145    0.000000000000
 H   -8.011798799093   -1.348553621377   -0.900997782303
 C   -7.386990549437    1.400059419574    0.000000000000
 H   -8.011799034460    1.348553343924   -0.900997782303
 H   -6.809853028944    2.334321537472    0.000000000000
 H   -8.011799034460    1.348553343924    0.900997782303
