20

 H    6.344667860749    1.348550018920   -0.901000000000
 H    5.142727860749    2.334330018920    0.000000000000
 H    6.344667860749    1.348550018920    0.901000000000
 C    5.719867860749    1.400060018920    0.000000000000
 S    4.538177860749    0.000000018920    0.000000000000
 C    5.719867860749   -1.400059981080    0.000000000000
 H    6.344667860749   -1.348549981080    0.901000000000
 H    5.142727860749   -2.334329981080    0.000000000000
 H    6.344667860749   -1.348549981080   -0.901000000000
NA    2.677087860749    0.000000018920    2.294760000000
NA    2.677087860749    0.000000018920   -2.294760000000
 S   -6.522912139251    0.000000018920    0.000000000000
 C   -7.704600281374   -1.400059587977    0.000000000000
 H   -8.329408775386   -1.348553621377    0.900997782303
 H   -7.127462597820   -2.334321605145    0.000000000000
 H   -8.329408775386   -1.348553621377   -0.900997782303
 C   -7.704600525730    1.400059419574    0.000000000000
 H   -8.329409010753    1.348553343924   -0.900997782303
 H   -7.127463005236    2.334321537472    0.000000000000
 H   -8.329409010753    1.348553343924    0.900997782303
