20

 H    6.381145865491    1.348550018920   -0.901000000000
 H    5.179205865491    2.334330018920    0.000000000000
 H    6.381145865491    1.348550018920    0.901000000000
 C    5.756345865491    1.400060018920    0.000000000000
 S    4.574655865491    0.000000018920    0.000000000000
 C    5.756345865491   -1.400059981080    0.000000000000
 H    6.381145865491   -1.348549981080    0.901000000000
 H    5.179205865491   -2.334329981080    0.000000000000
 H    6.381145865491   -1.348549981080   -0.901000000000
NA    2.713565865491    0.000000018920    2.294760000000
NA    2.713565865491    0.000000018920   -2.294760000000
 S   -6.586434134509    0.000000018920    0.000000000000
 C   -7.768122276632   -1.400059587977    0.000000000000
 H   -8.392930770644   -1.348553621377    0.900997782303
 H   -7.190984593079   -2.334321605145    0.000000000000
 H   -8.392930770644   -1.348553621377   -0.900997782303
 C   -7.768122520989    1.400059419574    0.000000000000
 H   -8.392931006011    1.348553343924   -0.900997782303
 H   -7.190985000495    2.334321537472    0.000000000000
 H   -8.392931006011    1.348553343924    0.900997782303
