20

 H    6.417623870232    1.348550018920   -0.901000000000
 H    5.215683870232    2.334330018920    0.000000000000
 H    6.417623870232    1.348550018920    0.901000000000
 C    5.792823870232    1.400060018920    0.000000000000
 S    4.611133870232    0.000000018920    0.000000000000
 C    5.792823870232   -1.400059981080    0.000000000000
 H    6.417623870232   -1.348549981080    0.901000000000
 H    5.215683870232   -2.334329981080    0.000000000000
 H    6.417623870232   -1.348549981080   -0.901000000000
NA    2.750043870232    0.000000018920    2.294760000000
NA    2.750043870232    0.000000018920   -2.294760000000
 S   -6.649956129768    0.000000018920    0.000000000000
 C   -7.831644271891   -1.400059587977    0.000000000000
 H   -8.456452765903   -1.348553621377    0.900997782303
 H   -7.254506588337   -2.334321605145    0.000000000000
 H   -8.456452765903   -1.348553621377   -0.900997782303
 C   -7.831644516247    1.400059419574    0.000000000000
 H   -8.456453001270    1.348553343924   -0.900997782303
 H   -7.254506995753    2.334321537472    0.000000000000
 H   -8.456453001270    1.348553343924    0.900997782303
