20

 H    6.490579879715    1.348550018920   -0.901000000000
 H    5.288639879715    2.334330018920    0.000000000000
 H    6.490579879715    1.348550018920    0.901000000000
 C    5.865779879715    1.400060018920    0.000000000000
 S    4.684089879715    0.000000018920    0.000000000000
 C    5.865779879715   -1.400059981080    0.000000000000
 H    6.490579879715   -1.348549981080    0.901000000000
 H    5.288639879715   -2.334329981080    0.000000000000
 H    6.490579879715   -1.348549981080   -0.901000000000
NA    2.822999879715    0.000000018920    2.294760000000
NA    2.822999879715    0.000000018920   -2.294760000000
 S   -6.777000120285    0.000000018920    0.000000000000
 C   -7.958688262408   -1.400059587977    0.000000000000
 H   -8.583496756420   -1.348553621377    0.900997782303
 H   -7.381550578854   -2.334321605145    0.000000000000
 H   -8.583496756420   -1.348553621377   -0.900997782303
 C   -7.958688506764    1.400059419574    0.000000000000
 H   -8.583496991787    1.348553343924   -0.900997782303
 H   -7.381550986270    2.334321537472    0.000000000000
 H   -8.583496991787    1.348553343924    0.900997782303
