20

 H    6.527057884457    1.348550018920   -0.901000000000
 H    5.325117884457    2.334330018920    0.000000000000
 H    6.527057884457    1.348550018920    0.901000000000
 C    5.902257884457    1.400060018920    0.000000000000
 S    4.720567884457    0.000000018920    0.000000000000
 C    5.902257884457   -1.400059981080    0.000000000000
 H    6.527057884457   -1.348549981080    0.901000000000
 H    5.325117884457   -2.334329981080    0.000000000000
 H    6.527057884457   -1.348549981080   -0.901000000000
NA    2.859477884457    0.000000018920    2.294760000000
NA    2.859477884457    0.000000018920   -2.294760000000
 S   -6.840522115543    0.000000018920    0.000000000000
 C   -8.022210257666   -1.400059587977    0.000000000000
 H   -8.647018751678   -1.348553621377    0.900997782303
 H   -7.445072574113   -2.334321605145    0.000000000000
 H   -8.647018751678   -1.348553621377   -0.900997782303
 C   -8.022210502023    1.400059419574    0.000000000000
 H   -8.647018987045    1.348553343924   -0.900997782303
 H   -7.445072981529    2.334321537472    0.000000000000
 H   -8.647018987045    1.348553343924    0.900997782303
