20

 H    6.563535889198    1.348550018920   -0.901000000000
 H    5.361595889198    2.334330018920    0.000000000000
 H    6.563535889198    1.348550018920    0.901000000000
 C    5.938735889198    1.400060018920    0.000000000000
 S    4.757045889198    0.000000018920    0.000000000000
 C    5.938735889198   -1.400059981080    0.000000000000
 H    6.563535889198   -1.348549981080    0.901000000000
 H    5.361595889198   -2.334329981080    0.000000000000
 H    6.563535889198   -1.348549981080   -0.901000000000
NA    2.895955889198    0.000000018920    2.294760000000
NA    2.895955889198    0.000000018920   -2.294760000000
 S   -6.904044110802    0.000000018920    0.000000000000
 C   -8.085732252925   -1.400059587977    0.000000000000
 H   -8.710540746937   -1.348553621377    0.900997782303
 H   -7.508594569372   -2.334321605145    0.000000000000
 H   -8.710540746937   -1.348553621377   -0.900997782303
 C   -8.085732497281    1.400059419574    0.000000000000
 H   -8.710540982304    1.348553343924   -0.900997782303
 H   -7.508594976788    2.334321537472    0.000000000000
 H   -8.710540982304    1.348553343924    0.900997782303
