20

 H    6.600013893940    1.348550018920   -0.901000000000
 H    5.398073893940    2.334330018920    0.000000000000
 H    6.600013893940    1.348550018920    0.901000000000
 C    5.975213893940    1.400060018920    0.000000000000
 S    4.793523893940    0.000000018920    0.000000000000
 C    5.975213893940   -1.400059981080    0.000000000000
 H    6.600013893940   -1.348549981080    0.901000000000
 H    5.398073893940   -2.334329981080    0.000000000000
 H    6.600013893940   -1.348549981080   -0.901000000000
NA    2.932433893940    0.000000018920    2.294760000000
NA    2.932433893940    0.000000018920   -2.294760000000
 S   -6.967566106060    0.000000018920    0.000000000000
 C   -8.149254248183   -1.400059587977    0.000000000000
 H   -8.774062742195   -1.348553621377    0.900997782303
 H   -7.572116564630   -2.334321605145    0.000000000000
 H   -8.774062742195   -1.348553621377   -0.900997782303
 C   -8.149254492540    1.400059419574    0.000000000000
 H   -8.774062977562    1.348553343924   -0.900997782303
 H   -7.572116972046    2.334321537472    0.000000000000
 H   -8.774062977562    1.348553343924    0.900997782303
