14

 P    0.283891448593   -0.367750743794    0.176696436327
 O   -0.303108551407    0.682249256206    1.131696436327
 O    0.017891448593   -0.319750743794   -1.335303563673
 O    1.946891448593   -0.541750743794    0.463696436327
 O   -0.031108551407   -1.925750743794    0.768696436327
 C    2.683891448593    0.623249256206    0.086696436327
 H    2.352891448593    1.506249256206    0.662696436327
 H    2.568891448593    0.834249256206   -0.991303563673
 H    3.743891448593    0.421249256206    0.306696436327
 C   -1.422108551407   -2.248750743794    0.718696436327
 H   -1.800108551407   -2.221750743794   -0.319303563673
 H   -2.015108551407   -1.549750743794    1.334696436327
 H   -1.532108551407   -3.268750743794    1.118696436327
CS   -0.401485835838    0.518247879283   -0.253727096826
