14

 P    0.313324149007   -0.405798885500    0.195180455553
 O   -0.273675850993    0.644201114500    1.150180455553
 O    0.047324149007   -0.357798885500   -1.316819544447
 O    1.976324149007   -0.579798885500    0.482180455553
 O   -0.001675850993   -1.963798885500    0.787180455553
 C    2.713324149007    0.585201114500    0.105180455553
 H    2.382324149007    1.468201114500    0.681180455553
 H    2.598324149007    0.796201114500   -0.972819544447
 H    3.773324149007    0.383201114500    0.325180455553
 C   -1.392675850993   -2.286798885500    0.737180455553
 H   -1.770675850993   -2.259798885500   -0.300819544447
 H   -1.985675850993   -1.587798885500    1.353180455553
 H   -1.502675850993   -3.306798885500    1.137180455553
CS   -0.429167909126    0.554032956167   -0.271111705363
