14

 P    0.401622250250   -0.519943310620    0.250632513232
 O   -0.185377749750    0.530056689380    1.205632513232
 O    0.135622250250   -0.471943310620   -1.261367486768
 O    2.064622250250   -0.693943310620    0.537632513232
 O    0.086622250250   -2.077943310620    0.842632513232
 C    2.801622250250    0.471056689380    0.160632513232
 H    2.470622250250    1.354056689380    0.736632513232
 H    2.686622250250    0.682056689380   -0.917367486768
 H    3.861622250250    0.269056689380    0.380632513232
 C   -1.304377749750   -2.400943310620    0.792632513232
 H   -1.682377749750   -2.373943310620   -0.245367486768
 H   -1.897377749750   -1.701943310620    1.408632513232
 H   -1.414377749750   -3.420943310620    1.192632513232
CS   -0.512214128991    0.661388186816   -0.323265530973
