14

 P    0.489920351493   -0.634087735739    0.306084570910
 O   -0.097079648507    0.415912264261    1.261084570910
 O    0.223920351493   -0.586087735739   -1.205915429090
 O    2.152920351493   -0.808087735739    0.593084570910
 O    0.174920351493   -2.192087735739    0.898084570910
 C    2.889920351493    0.356912264261    0.216084570910
 H    2.558920351493    1.239912264261    0.792084570910
 H    2.774920351493    0.567912264261   -0.861915429090
 H    3.949920351493    0.154912264261    0.436084570910
 C   -1.216079648507   -2.515087735739    0.848084570910
 H   -1.594079648507   -2.488087735739   -0.189915429090
 H   -1.809079648507   -1.816087735739    1.464084570910
 H   -1.326079648507   -3.535087735739    1.248084570910
CS   -0.595260348856    0.768743417466   -0.375419356583
