14

 P    0.578218452735   -0.748232160859    0.361536628588
 O   -0.008781547265    0.301767839141    1.316536628588
 O    0.312218452735   -0.700232160859   -1.150463371412
 O    2.241218452735   -0.922232160859    0.648536628588
 O    0.263218452735   -2.306232160859    0.953536628588
 C    2.978218452735    0.242767839141    0.271536628588
 H    2.647218452735    1.125767839141    0.847536628588
 H    2.863218452735    0.453767839141   -0.806463371412
 H    4.038218452735    0.040767839141    0.491536628588
 C   -1.127781547265   -2.629232160859    0.903536628588
 H   -1.505781547265   -2.602232160859   -0.134463371412
 H   -1.720781547265   -1.930232160859    1.519536628588
 H   -1.237781547265   -3.649232160859    1.303536628588
CS   -0.678306568721    0.876098648116   -0.427573182193
