14

 P    0.637083853564   -0.824328444272    0.398504667040
 O    0.050083853564    0.225671555728    1.353504667040
 O    0.371083853564   -0.776328444272   -1.113495332960
 O    2.300083853564   -0.998328444272    0.685504667040
 O    0.322083853564   -2.382328444272    0.990504667040
 C    3.037083853564    0.166671555728    0.308504667040
 H    2.706083853564    1.049671555728    0.884504667040
 H    2.922083853564    0.377671555728   -0.769495332960
 H    4.097083853564   -0.035328444272    0.528504667040
 C   -1.068916146436   -2.705328444272    0.940504667040
 H   -1.446916146436   -2.678328444272   -0.097495332960
 H   -1.661916146436   -2.006328444272    1.556504667040
 H   -1.178916146436   -3.725328444272    1.340504667040
CS   -0.733670715297    0.947668801882   -0.462342399266
