14

 P    0.754814655221   -0.976521011098    0.472440743945
 O    0.167814655221    0.073478988902    1.427440743945
 O    0.488814655221   -0.928521011098   -1.039559256055
 O    2.417814655221   -1.150521011098    0.759440743945
 O    0.439814655221   -2.534521011098    1.064440743945
 C    3.154814655221    0.014478988902    0.382440743945
 H    2.823814655221    0.897478988902    0.958440743945
 H    3.039814655221    0.225478988902   -0.695559256055
 H    4.214814655221   -0.187521011098    0.602440743945
 C   -0.951185344779   -2.857521011098    1.014440743945
 H   -1.329185344779   -2.830521011098   -0.023559256055
 H   -1.544185344779   -2.158521011098    1.630440743945
 H   -1.061185344779   -3.877521011098    1.414440743945
CS   -0.844399008451    1.090809109415   -0.531880833413
