14

 P    0.784247355635   -1.014569152805    0.490924763171
 O    0.197247355635    0.035430847195    1.445924763171
 O    0.518247355635   -0.966569152805   -1.021075236829
 O    2.447247355635   -1.188569152805    0.777924763171
 O    0.469247355635   -2.572569152805    1.082924763171
 C    3.184247355635   -0.023569152805    0.400924763171
 H    2.853247355635    0.859430847195    0.976924763171
 H    3.069247355635    0.187430847195   -0.677075236829
 H    4.244247355635   -0.225569152805    0.620924763171
 C   -0.921752644365   -2.895569152805    1.032924763171
 H   -1.299752644365   -2.868569152805   -0.005075236829
 H   -1.514752644365   -2.196569152805    1.648924763171
 H   -1.031752644365   -3.915569152805    1.432924763171
CS   -0.872081081739    1.126594186298   -0.549265441949
