14

 P    0.813680056049   -1.052617294511    0.509408782397
 O    0.226680056049   -0.002617294511    1.464408782397
 O    0.547680056049   -1.004617294511   -1.002591217603
 O    2.476680056049   -1.226617294511    0.796408782397
 O    0.498680056049   -2.610617294511    1.101408782397
 C    3.213680056049   -0.061617294511    0.419408782397
 H    2.882680056049    0.821382705489    0.995408782397
 H    3.098680056049    0.149382705489   -0.658591217603
 H    4.273680056049   -0.263617294511    0.639408782397
 C   -0.892319943951   -2.933617294511    1.051408782397
 H   -1.270319943951   -2.906617294511    0.013408782397
 H   -1.485319943951   -2.234617294511    1.667408782397
 H   -1.002319943951   -3.953617294511    1.451408782397
CS   -0.899763155027    1.162379263182   -0.566650050486
