14

 P    0.843112756463   -1.090665436218    0.527892801623
 O    0.256112756463   -0.040665436218    1.482892801623
 O    0.577112756463   -1.042665436218   -0.984107198377
 O    2.506112756463   -1.264665436218    0.814892801623
 O    0.528112756463   -2.648665436218    1.119892801623
 C    3.243112756463   -0.099665436218    0.437892801623
 H    2.912112756463    0.783334563782    1.013892801623
 H    3.128112756463    0.111334563782   -0.640107198377
 H    4.303112756463   -0.301665436218    0.657892801623
 C   -0.862887243537   -2.971665436218    1.069892801623
 H   -1.240887243537   -2.944665436218    0.031892801623
 H   -1.455887243537   -2.272665436218    1.685892801623
 H   -0.972887243537   -3.991665436218    1.469892801623
CS   -0.927445228315    1.198164340065   -0.584034659023
