14

 P    0.901978157292   -1.166761719631    0.564860840075
 O    0.314978157292   -0.116761719631    1.519860840075
 O    0.635978157292   -1.118761719631   -0.947139159925
 O    2.564978157292   -1.340761719631    0.851860840075
 O    0.586978157292   -2.724761719631    1.156860840075
 C    3.301978157292   -0.175761719631    0.474860840075
 H    2.970978157292    0.707238280369    1.050860840075
 H    3.186978157292    0.035238280369   -0.603139159925
 H    4.361978157292   -0.377761719631    0.694860840075
 C   -0.804021842708   -3.047761719631    1.106860840075
 H   -1.182021842708   -3.020761719631    0.068860840075
 H   -1.397021842708   -2.348761719631    1.722860840075
 H   -0.914021842708   -4.067761719631    1.506860840075
CS   -0.982809374892    1.269734493831   -0.618803876096
