14

 P    0.990276258535   -1.280906144751    0.620312897753
 O    0.403276258535   -0.230906144751    1.575312897753
 O    0.724276258535   -1.232906144751   -0.891687102247
 O    2.653276258535   -1.454906144751    0.907312897753
 O    0.675276258535   -2.838906144751    1.212312897753
 C    3.390276258535   -0.289906144751    0.530312897753
 H    3.059276258535    0.593093855249    1.106312897753
 H    3.275276258535   -0.078906144751   -0.547687102247
 H    4.450276258535   -0.491906144751    0.750312897753
 C   -0.715723741465   -3.161906144751    1.162312897753
 H   -1.093723741465   -3.134906144751    0.124312897753
 H   -1.308723741465   -2.462906144751    1.778312897753
 H   -0.825723741465   -4.181906144751    1.562312897753
CS   -1.065855594757    1.377089724481   -0.670957701706
