14

 P    1.108007060192   -1.433098711577    0.694248974657
 O    0.521007060192   -0.383098711577    1.649248974657
 O    0.842007060192   -1.385098711577   -0.817751025343
 O    2.771007060192   -1.607098711577    0.981248974657
 O    0.793007060192   -2.991098711577    1.286248974657
 C    3.508007060192   -0.442098711577    0.604248974657
 H    3.177007060192    0.440901288423    1.180248974657
 H    3.393007060192   -0.231098711577   -0.473751025343
 H    4.568007060192   -0.644098711577    0.824248974657
 C   -0.597992939808   -3.314098711577    1.236248974657
 H   -0.975992939808   -3.287098711577    0.198248974657
 H   -1.190992939808   -2.615098711577    1.852248974657
 H   -0.707992939808   -4.334098711577    1.636248974657
CS   -1.176583887910    1.520230032014   -0.740496135853
