14

 P    1.137439760606   -1.471146853283    0.712732993884
 O    0.550439760606   -0.421146853283    1.667732993884
 O    0.871439760606   -1.423146853283   -0.799267006116
 O    2.800439760606   -1.645146853283    0.999732993884
 O    0.822439760606   -3.029146853283    1.304732993884
 C    3.537439760606   -0.480146853283    0.622732993884
 H    3.206439760606    0.402853146717    1.198732993884
 H    3.422439760606   -0.269146853283   -0.455267006116
 H    4.597439760606   -0.682146853283    0.842732993884
 C   -0.568560239394   -3.352146853283    1.254732993884
 H   -0.946560239394   -3.325146853283    0.216732993884
 H   -1.161560239394   -2.653146853283    1.870732993884
 H   -0.678560239394   -4.372146853283    1.654732993884
CS   -1.204265961199    1.556015108897   -0.757880744390
