14

 P    1.166872461020   -1.509194994990    0.731217013110
 O    0.579872461020   -0.459194994990    1.686217013110
 O    0.900872461020   -1.461194994990   -0.780782986890
 O    2.829872461020   -1.683194994990    1.018217013110
 O    0.851872461020   -3.067194994990    1.323217013110
 C    3.566872461020   -0.518194994990    0.641217013110
 H    3.235872461020    0.364805005010    1.217217013110
 H    3.451872461020   -0.307194994990   -0.436782986890
 H    4.626872461020   -0.720194994990    0.861217013110
 C   -0.539127538980   -3.390194994990    1.273217013110
 H   -0.917127538980   -3.363194994990    0.235217013110
 H   -1.132127538980   -2.691194994990    1.889217013110
 H   -0.649127538980   -4.410194994990    1.673217013110
CS   -1.231948034487    1.591800185780   -0.775265352926
