14

 P    1.314035963091   -1.699435703522    0.823637109240
 O    0.727035963091   -0.649435703522    1.778637109240
 O    1.048035963091   -1.651435703522   -0.688362890760
 O    2.977035963091   -1.873435703522    1.110637109240
 O    0.999035963091   -3.257435703522    1.415637109240
 C    3.714035963091   -0.708435703522    0.733637109240
 H    3.383035963091    0.174564296478    1.309637109240
 H    3.599035963091   -0.497435703522   -0.344362890760
 H    4.774035963091   -0.910435703522    0.953637109240
 C   -0.391964036909   -3.580435703522    1.365637109240
 H   -0.769964036909   -3.553435703522    0.327637109240
 H   -0.984964036909   -2.881435703522    1.981637109240
 H   -0.501964036909   -4.600435703522    1.765637109240
CS   -1.370358400928    1.770725570196   -0.862188395610
