14

 P    1.402334064334   -1.813580128642    0.879089166918
 O    0.815334064334   -0.763580128642    1.834089166918
 O    1.136334064334   -1.765580128642   -0.632910833082
 O    3.065334064334   -1.987580128642    1.166089166918
 O    1.087334064334   -3.371580128642    1.471089166918
 C    3.802334064334   -0.822580128642    0.789089166918
 H    3.471334064334    0.060419871358    1.365089166918
 H    3.687334064334   -0.611580128642   -0.288910833082
 H    4.862334064334   -1.024580128642    1.009089166918
 C   -0.303665935666   -3.694580128642    1.421089166918
 H   -0.681665935666   -3.667580128642    0.383089166918
 H   -0.896665935666   -2.995580128642    2.037089166918
 H   -0.413665935666   -4.714580128642    1.821089166918
CS   -1.453404620793    1.878080800846   -0.914342221220
