14

 P    1.431766764748   -1.851628270349    0.897573186144
 O    0.844766764748   -0.801628270349    1.852573186144
 O    1.165766764748   -1.803628270349   -0.614426813856
 O    3.094766764748   -2.025628270349    1.184573186144
 O    1.116766764748   -3.409628270349    1.489573186144
 C    3.831766764748   -0.860628270349    0.807573186144
 H    3.500766764748    0.022371729651    1.383573186144
 H    3.716766764748   -0.649628270349   -0.270426813856
 H    4.891766764748   -1.062628270349    1.027573186144
 C   -0.274233235252   -3.732628270349    1.439573186144
 H   -0.652233235252   -3.705628270349    0.401573186144
 H   -0.867233235252   -3.033628270349    2.055573186144
 H   -0.384233235252   -4.752628270349    1.839573186144
CS   -1.481086694082    1.913865877729   -0.931726829756
