14

 P    1.461199465162   -1.889676412055    0.916057205370
 O    0.874199465162   -0.839676412055    1.871057205370
 O    1.195199465162   -1.841676412055   -0.595942794630
 O    3.124199465162   -2.063676412055    1.203057205370
 O    1.146199465162   -3.447676412055    1.508057205370
 C    3.861199465162   -0.898676412055    0.826057205370
 H    3.530199465162   -0.015676412055    1.402057205370
 H    3.746199465162   -0.687676412055   -0.251942794630
 H    4.921199465162   -1.100676412055    1.046057205370
 C   -0.244800534838   -3.770676412055    1.458057205370
 H   -0.622800534838   -3.743676412055    0.420057205370
 H   -0.837800534838   -3.071676412055    2.074057205370
 H   -0.354800534838   -4.790676412055    1.858057205370
CS   -1.508768767370    1.949650954613   -0.949111438293
