14

 P    1.490632165577   -1.927724553762    0.934541224597
 O    0.903632165577   -0.877724553762    1.889541224597
 O    1.224632165577   -1.879724553762   -0.577458775403
 O    3.153632165577   -2.101724553762    1.221541224597
 O    1.175632165577   -3.485724553762    1.526541224597
 C    3.890632165577   -0.936724553762    0.844541224597
 H    3.559632165577   -0.053724553762    1.420541224597
 H    3.775632165577   -0.725724553762   -0.233458775403
 H    4.950632165577   -1.138724553762    1.064541224597
 C   -0.215367834423   -3.808724553762    1.476541224597
 H   -0.593367834423   -3.781724553762    0.438541224597
 H   -0.808367834423   -3.109724553762    2.092541224597
 H   -0.325367834423   -4.828724553762    1.876541224597
CS   -1.536450840658    1.985436031496   -0.966496046830
