14

 P    1.637795667648   -2.117965262294    1.026961320727
 O    1.050795667648   -1.067965262294    1.981961320727
 O    1.371795667648   -2.069965262294   -0.485038679273
 O    3.300795667648   -2.291965262294    1.313961320727
 O    1.322795667648   -3.675965262294    1.618961320727
 C    4.037795667648   -1.126965262294    0.936961320727
 H    3.706795667648   -0.243965262294    1.512961320727
 H    3.922795667648   -0.915965262294   -0.141038679273
 H    5.097795667648   -1.328965262294    1.156961320727
 C   -0.068204332352   -3.998965262294    1.568961320727
 H   -0.446204332352   -3.971965262294    0.530961320727
 H   -0.661204332352   -3.299965262294    2.184961320727
 H   -0.178204332352   -5.018965262294    1.968961320727
CS   -1.674861207100    2.164361415912   -1.053419089513
