14

 P    1.784959169719   -2.308205970827    1.119381416857
 O    1.197959169719   -1.258205970827    2.074381416857
 O    1.518959169719   -2.260205970827   -0.392618583143
 O    3.447959169719   -2.482205970827    1.406381416857
 O    1.469959169719   -3.866205970827    1.711381416857
 C    4.184959169719   -1.317205970827    1.029381416857
 H    3.853959169719   -0.434205970827    1.605381416857
 H    4.069959169719   -1.106205970827   -0.048618583143
 H    5.244959169719   -1.519205970827    1.249381416857
 C    0.078959169719   -4.189205970827    1.661381416857
 H   -0.299040830281   -4.162205970827    0.623381416857
 H   -0.514040830281   -3.490205970827    2.277381416857
 H   -0.031040830281   -5.209205970827    2.061381416857
CS   -1.813271573541    2.343286800328   -1.140342132197
