14

 P    1.873257270962   -2.422350395947    1.174833474536
 O    1.286257270962   -1.372350395947    2.129833474536
 O    1.607257270962   -2.374350395947   -0.337166525464
 O    3.536257270962   -2.596350395947    1.461833474536
 O    1.558257270962   -3.980350395947    1.766833474536
 C    4.273257270962   -1.431350395947    1.084833474536
 H    3.942257270962   -0.548350395947    1.660833474536
 H    4.158257270962   -1.220350395947    0.006833474536
 H    5.333257270962   -1.633350395947    1.304833474536
 C    0.167257270962   -4.303350395947    1.716833474536
 H   -0.210742729038   -4.276350395947    0.678833474536
 H   -0.425742729038   -3.604350395947    2.332833474536
 H    0.057257270962   -5.323350395947    2.116833474536
CS   -1.896317793406    2.450642030978   -1.192495957807
