14

 P    1.902689971376   -2.460398537653    1.193317493762
 O    1.315689971376   -1.410398537653    2.148317493762
 O    1.636689971376   -2.412398537653   -0.318682506238
 O    3.565689971376   -2.634398537653    1.480317493762
 O    1.587689971376   -4.018398537653    1.785317493762
 C    4.302689971376   -1.469398537653    1.103317493762
 H    3.971689971376   -0.586398537653    1.679317493762
 H    4.187689971376   -1.258398537653    0.025317493762
 H    5.362689971376   -1.671398537653    1.323317493762
 C    0.196689971376   -4.341398537653    1.735317493762
 H   -0.181310028624   -4.314398537653    0.697317493762
 H   -0.396310028624   -3.642398537653    2.351317493762
 H    0.086689971376   -5.361398537653    2.135317493762
CS   -1.923999866695    2.486427107861   -1.209880566343
