14

 P    1.932122671790   -2.498446679360    1.211801512988
 O    1.345122671790   -1.448446679360    2.166801512988
 O    1.666122671790   -2.450446679360   -0.300198487012
 O    3.595122671790   -2.672446679360    1.498801512988
 O    1.617122671790   -4.056446679360    1.803801512988
 C    4.332122671790   -1.507446679360    1.121801512988
 H    4.001122671790   -0.624446679360    1.697801512988
 H    4.217122671790   -1.296446679360    0.043801512988
 H    5.392122671790   -1.709446679360    1.341801512988
 C    0.226122671790   -4.379446679360    1.753801512988
 H   -0.151877328210   -4.352446679360    0.715801512988
 H   -0.366877328210   -3.680446679360    2.369801512988
 H    0.116122671790   -5.399446679360    2.153801512988
CS   -1.951681939983    2.522212184744   -1.227265174880
