14

 P    2.020420773033   -2.612591104479    1.267253570666
 O    1.433420773033   -1.562591104479    2.222253570666
 O    1.754420773033   -2.564591104479   -0.244746429334
 O    3.683420773033   -2.786591104479    1.554253570666
 O    1.705420773033   -4.170591104479    1.859253570666
 C    4.420420773033   -1.621591104479    1.177253570666
 H    4.089420773033   -0.738591104479    1.753253570666
 H    4.305420773033   -1.410591104479    0.099253570666
 H    5.480420773033   -1.823591104479    1.397253570666
 C    0.314420773033   -4.493591104479    1.809253570666
 H   -0.063579226967   -4.466591104479    0.771253570666
 H   -0.278579226967   -3.794591104479    2.425253570666
 H    0.204420773033   -5.513591104479    2.209253570666
CS   -2.034728159848    2.629567415394   -1.279419000490
