14

 P    2.255882376347   -2.916976238131    1.415125724475
 O    1.668882376347   -1.866976238131    2.370125724475
 O    1.989882376347   -2.868976238131   -0.096874275525
 O    3.918882376347   -3.090976238131    1.702125724475
 O    1.940882376347   -4.474976238131    2.007125724475
 C    4.655882376347   -1.925976238131    1.325125724475
 H    4.324882376347   -1.042976238131    1.901125724475
 H    4.540882376347   -1.714976238131    0.247125724475
 H    5.715882376347   -2.127976238131    1.545125724475
 C    0.549882376347   -4.797976238131    1.957125724475
 H    0.171882376347   -4.770976238131    0.919125724475
 H   -0.043117623653   -4.098976238131    2.573125724475
 H    0.439882376347   -5.817976238131    2.357125724475
CS   -2.256184746154    2.915848030460   -1.418495868784
