14

 P    2.344180477589   -3.031120663251    1.470577782153
 O    1.757180477589   -1.981120663251    2.425577782153
 O    2.078180477589   -2.983120663251   -0.041422217847
 O    4.007180477589   -3.205120663251    1.757577782153
 O    2.029180477589   -4.589120663251    2.062577782153
 C    4.744180477589   -2.040120663251    1.380577782153
 H    4.413180477589   -1.157120663251    1.956577782153
 H    4.629180477589   -1.829120663251    0.302577782153
 H    5.804180477589   -2.242120663251    1.600577782153
 C    0.638180477589   -4.912120663251    2.012577782153
 H    0.260180477589   -4.885120663251    0.974577782153
 H    0.045180477589   -4.213120663251    2.628577782153
 H    0.528180477589   -5.932120663251    2.412577782153
CS   -2.339230966019    3.023203261109   -1.470649694394
