14

 P    2.373613178004   -3.069168804958    1.489061801379
 O    1.786613178004   -2.019168804958    2.444061801379
 O    2.107613178004   -3.021168804958   -0.022938198621
 O    4.036613178004   -3.243168804958    1.776061801379
 O    2.058613178004   -4.627168804958    2.081061801379
 C    4.773613178004   -2.078168804958    1.399061801379
 H    4.442613178004   -1.195168804958    1.975061801379
 H    4.658613178004   -1.867168804958    0.321061801379
 H    5.833613178004   -2.280168804958    1.619061801379
 C    0.667613178004   -4.950168804958    2.031061801379
 H    0.289613178004   -4.923168804958    0.993061801379
 H    0.074613178004   -4.251168804958    2.647061801379
 H    0.557613178004   -5.970168804958    2.431061801379
CS   -2.366913039308    3.058988337993   -1.488034302930
