14

 P    2.461911279246   -3.183313230077    1.544513859057
 O    1.874911279246   -2.133313230077    2.499513859057
 O    2.195911279246   -3.135313230077    0.032513859057
 O    4.124911279246   -3.357313230077    1.831513859057
 O    2.146911279246   -4.741313230077    2.136513859057
 C    4.861911279246   -2.192313230077    1.454513859057
 H    4.530911279246   -1.309313230077    2.030513859057
 H    4.746911279246   -1.981313230077    0.376513859057
 H    5.921911279246   -2.394313230077    1.674513859057
 C    0.755911279246   -5.064313230077    2.086513859057
 H    0.377911279246   -5.037313230077    1.048513859057
 H    0.162911279246   -4.365313230077    2.702513859057
 H    0.645911279246   -6.084313230077    2.486513859057
CS   -2.449959259173    3.166343568642   -1.540188128540
