14

 P    2.491343979660   -3.221361371784    1.562997878283
 O    1.904343979660   -2.171361371784    2.517997878283
 O    2.225343979660   -3.173361371784    0.050997878283
 O    4.154343979660   -3.395361371784    1.849997878283
 O    2.176343979660   -4.779361371784    2.154997878283
 C    4.891343979660   -2.230361371784    1.472997878283
 H    4.560343979660   -1.347361371784    2.048997878283
 H    4.776343979660   -2.019361371784    0.394997878283
 H    5.951343979660   -2.432361371784    1.692997878283
 C    0.785343979660   -5.102361371784    2.104997878283
 H    0.407343979660   -5.075361371784    1.066997878283
 H    0.192343979660   -4.403361371784    2.720997878283
 H    0.675343979660   -6.122361371784    2.504997878283
CS   -2.477641332461    3.202128645526   -1.557572737077
