14

 P    2.579642080903   -3.335505796903    1.618449935961
 O    1.992642080903   -2.285505796903    2.573449935961
 O    2.313642080903   -3.287505796903    0.106449935961
 O    4.242642080903   -3.509505796903    1.905449935961
 O    2.264642080903   -4.893505796903    2.210449935961
 C    4.979642080903   -2.344505796903    1.528449935961
 H    4.648642080903   -1.461505796903    2.104449935961
 H    4.864642080903   -2.133505796903    0.450449935961
 H    6.039642080903   -2.546505796903    1.748449935961
 C    0.873642080903   -5.216505796903    2.160449935961
 H    0.495642080903   -5.189505796903    1.122449935961
 H    0.280642080903   -4.517505796903    2.776449935961
 H    0.763642080903   -6.236505796903    2.560449935961
CS   -2.560687552326    3.309483876175   -1.609726562687
