14

 P    2.638507481732   -3.411602080316    1.655417974414
 O    2.051507481732   -2.361602080316    2.610417974414
 O    2.372507481732   -3.363602080316    0.143417974414
 O    4.301507481732   -3.585602080316    1.942417974414
 O    2.323507481732   -4.969602080316    2.247417974414
 C    5.038507481732   -2.420602080316    1.565417974414
 H    4.707507481732   -1.537602080316    2.141417974414
 H    4.923507481732   -2.209602080316    0.487417974414
 H    6.098507481732   -2.622602080316    1.785417974414
 C    0.932507481732   -5.292602080316    2.197417974414
 H    0.554507481732   -5.265602080316    1.159417974414
 H    0.339507481732   -4.593602080316    2.813417974414
 H    0.822507481732   -6.312602080316    2.597417974414
CS   -2.616051698902    3.381054029942   -1.644495779760
