14

 P    2.667940182146   -3.449650222023    1.673901993640
 O    2.080940182146   -2.399650222023    2.628901993640
 O    2.401940182146   -3.401650222023    0.161901993640
 O    4.330940182146   -3.623650222023    1.960901993640
 O    2.352940182146   -5.007650222023    2.265901993640
 C    5.067940182146   -2.458650222023    1.583901993640
 H    4.736940182146   -1.575650222023    2.159901993640
 H    4.952940182146   -2.247650222023    0.505901993640
 H    6.127940182146   -2.660650222023    1.803901993640
 C    0.961940182146   -5.330650222023    2.215901993640
 H    0.583940182146   -5.303650222023    1.177901993640
 H    0.368940182146   -4.631650222023    2.831901993640
 H    0.851940182146   -6.350650222023    2.615901993640
CS   -2.643733772191    3.416839106825   -1.661880388297
