14

 P    2.697372882560   -3.487698363730    1.692386012866
 O    2.110372882560   -2.437698363730    2.647386012866
 O    2.431372882560   -3.439698363730    0.180386012866
 O    4.360372882560   -3.661698363730    1.979386012866
 O    2.382372882560   -5.045698363730    2.284386012866
 C    5.097372882560   -2.496698363730    1.602386012866
 H    4.766372882560   -1.613698363730    2.178386012866
 H    4.982372882560   -2.285698363730    0.524386012866
 H    6.157372882560   -2.698698363730    1.822386012866
 C    0.991372882560   -5.368698363730    2.234386012866
 H    0.613372882560   -5.341698363730    1.196386012866
 H    0.398372882560   -4.669698363730    2.850386012866
 H    0.881372882560   -6.388698363730    2.634386012866
CS   -2.671415845479    3.452624183708   -1.679264996834
