14

 P    2.756238283389   -3.563794647143    1.729354051318
 O    2.169238283389   -2.513794647143    2.684354051318
 O    2.490238283389   -3.515794647143    0.217354051318
 O    4.419238283389   -3.737794647143    2.016354051318
 O    2.441238283389   -5.121794647143    2.321354051318
 C    5.156238283389   -2.572794647143    1.639354051318
 H    4.825238283389   -1.689794647143    2.215354051318
 H    5.041238283389   -2.361794647143    0.561354051318
 H    6.216238283389   -2.774794647143    1.859354051318
 C    1.050238283389   -5.444794647143    2.271354051318
 H    0.672238283389   -5.417794647143    1.233354051318
 H    0.457238283389   -4.745794647143    2.887354051318
 H    0.940238283389   -6.464794647143    2.671354051318
CS   -2.726779992056    3.524194337475   -1.714034213907
