14

 P    2.844536384631   -3.677939072262    1.784806108996
 O    2.257536384631   -2.627939072262    2.739806108996
 O    2.578536384631   -3.629939072262    0.272806108996
 O    4.507536384631   -3.851939072262    2.071806108996
 O    2.529536384631   -5.235939072262    2.376806108996
 C    5.244536384631   -2.686939072262    1.694806108996
 H    4.913536384631   -1.803939072262    2.270806108996
 H    5.129536384631   -2.475939072262    0.616806108996
 H    6.304536384631   -2.888939072262    1.914806108996
 C    1.138536384631   -5.558939072262    2.326806108996
 H    0.760536384631   -5.531939072262    1.288806108996
 H    0.545536384631   -4.859939072262    2.942806108996
 H    1.028536384631   -6.578939072262    2.726806108996
CS   -2.809826211921    3.631549568124   -1.766188039517
