10

 C    1.044375916422   -1.321183754762    0.756732119281
 C   -0.054923083578   -0.272323754762    0.756732119281
 N   -1.334531083578   -0.776112754762    0.756732119281
 H   -2.109204083578   -0.125528754762    0.756732119281
 H   -1.521202083578   -1.768163754762    0.756732119281
 O    0.166668916422    0.940678245238    0.756732119281
 H    2.015040916422   -0.812038754762    0.756732119281
 H    0.964737916422   -1.962188754762    1.648979119281
 H    0.964737916422   -1.962188754762   -0.135514880719
NA    0.166668916422    0.940678245238   -1.943267880719
