10

 C    1.044375916422   -1.321183754762    0.896867696925
 C   -0.054923083578   -0.272323754762    0.896867696925
 N   -1.334531083578   -0.776112754762    0.896867696925
 H   -2.109204083578   -0.125528754762    0.896867696925
 H   -1.521202083578   -1.768163754762    0.896867696925
 O    0.166668916422    0.940678245238    0.896867696925
 H    2.015040916422   -0.812038754762    0.896867696925
 H    0.964737916422   -1.962188754762    1.789114696925
 H    0.964737916422   -1.962188754762    0.004620696925
NA    0.166668916422    0.940678245238   -2.303132303075
