10

 C    1.044375916422   -1.321183754762    1.849789624909
 C   -0.054923083578   -0.272323754762    1.849789624909
 N   -1.334531083578   -0.776112754762    1.849789624909
 H   -2.109204083578   -0.125528754762    1.849789624909
 H   -1.521202083578   -1.768163754762    1.849789624909
 O    0.166668916422    0.940678245238    1.849789624909
 H    2.015040916422   -0.812038754762    1.849789624909
 H    0.964737916422   -1.962188754762    2.742036624909
 H    0.964737916422   -1.962188754762    0.957542624909
NA    0.166668916422    0.940678245238   -4.750210375091
