10

 C    1.044375916422   -1.321183754762    2.662575975247
 C   -0.054923083578   -0.272323754762    2.662575975247
 N   -1.334531083578   -0.776112754762    2.662575975247
 H   -2.109204083578   -0.125528754762    2.662575975247
 H   -1.521202083578   -1.768163754762    2.662575975247
 O    0.166668916422    0.940678245238    2.662575975247
 H    2.015040916422   -0.812038754762    2.662575975247
 H    0.964737916422   -1.962188754762    3.554822975247
 H    0.964737916422   -1.962188754762    1.770328975247
NA    0.166668916422    0.940678245238   -6.837424024753
