20

 H   -0.895090000000    1.313720000000   -4.805602214112
 H   -0.000000000000    2.317560000000   -3.631812214112
 H    0.895090000000    1.313720000000   -4.805602214112
 C   -0.000000000000    1.362230000000   -4.172362214112
 S    0.000000000000    0.000000000000   -2.952412214112
 C    0.000000000000   -1.362230000000   -4.172362214112
 H    0.895090000000   -1.313720000000   -4.805602214112
 H    0.000000000000   -2.317560000000   -3.631812214112
 H   -0.895090000000   -1.313720000000   -4.805602214112
RB   -2.918480000000   -0.000000000000    0.442027785888
RB    2.918480000000    0.000000000000    0.442027785888
 S    0.000000000000    0.000000000000    1.742027785888
 C    0.000000000000   -1.362230791191    2.961981921924
 H    0.895089981571   -1.313723844352    3.595219003197
 H    0.000000000000   -2.317566084612    2.421434095415
 H   -0.895089981571   -1.313723844352    3.595219003197
 C   -0.000000000000    1.362230791191    2.961981921924
 H   -0.895089981571    1.313723844352    3.595219003197
 H   -0.000000000000    2.317566084612    2.421434095415
 H    0.895089981571    1.313723844352    3.595219003197
