20

 H   -0.895090000000    1.313720000000   -4.826707052812
 H   -0.000000000000    2.317560000000   -3.652917052812
 H    0.895090000000    1.313720000000   -4.826707052812
 C   -0.000000000000    1.362230000000   -4.193467052812
 S    0.000000000000    0.000000000000   -2.973517052812
 C    0.000000000000   -1.362230000000   -4.193467052812
 H    0.895090000000   -1.313720000000   -4.826707052812
 H    0.000000000000   -2.317560000000   -3.652917052812
 H   -0.895090000000   -1.313720000000   -4.826707052812
RB   -2.918480000000   -0.000000000000    0.420922947188
RB    2.918480000000    0.000000000000    0.420922947188
 S    0.000000000000    0.000000000000    1.820922947188
 C    0.000000000000   -1.362230791191    3.040877083224
 H    0.895089981571   -1.313723844352    3.674114164498
 H    0.000000000000   -2.317566084612    2.500329256715
 H   -0.895089981571   -1.313723844352    3.674114164498
 C   -0.000000000000    1.362230791191    3.040877083224
 H   -0.895089981571    1.313723844352    3.674114164498
 H   -0.000000000000    2.317566084612    2.500329256715
 H    0.895089981571    1.313723844352    3.674114164498
