20

 H   -0.895090000000    1.313720000000   -4.911126407610
 H   -0.000000000000    2.317560000000   -3.737336407610
 H    0.895090000000    1.313720000000   -4.911126407610
 C   -0.000000000000    1.362230000000   -4.277886407610
 S    0.000000000000    0.000000000000   -3.057936407610
 C    0.000000000000   -1.362230000000   -4.277886407610
 H    0.895090000000   -1.313720000000   -4.911126407610
 H    0.000000000000   -2.317560000000   -3.737336407610
 H   -0.895090000000   -1.313720000000   -4.911126407610
RB   -2.918480000000   -0.000000000000    0.336503592390
RB    2.918480000000    0.000000000000    0.336503592390
 S    0.000000000000    0.000000000000    2.136503592390
 C    0.000000000000   -1.362230791191    3.356457728426
 H    0.895089981571   -1.313723844352    3.989694809699
 H    0.000000000000   -2.317566084612    2.815909901917
 H   -0.895089981571   -1.313723844352    3.989694809699
 C   -0.000000000000    1.362230791191    3.356457728426
 H   -0.895089981571    1.313723844352    3.989694809699
 H   -0.000000000000    2.317566084612    2.815909901917
 H    0.895089981571    1.313723844352    3.989694809699
