20

 H   -0.895090000000    1.313720000000   -4.932231246310
 H   -0.000000000000    2.317560000000   -3.758441246310
 H    0.895090000000    1.313720000000   -4.932231246310
 C   -0.000000000000    1.362230000000   -4.298991246310
 S    0.000000000000    0.000000000000   -3.079041246310
 C    0.000000000000   -1.362230000000   -4.298991246310
 H    0.895090000000   -1.313720000000   -4.932231246310
 H    0.000000000000   -2.317560000000   -3.758441246310
 H   -0.895090000000   -1.313720000000   -4.932231246310
RB   -2.918480000000   -0.000000000000    0.315398753690
RB    2.918480000000    0.000000000000    0.315398753690
 S    0.000000000000    0.000000000000    2.215398753690
 C    0.000000000000   -1.362230791191    3.435352889726
 H    0.895089981571   -1.313723844352    4.068589971000
 H    0.000000000000   -2.317566084612    2.894805063217
 H   -0.895089981571   -1.313723844352    4.068589971000
 C   -0.000000000000    1.362230791191    3.435352889726
 H   -0.895089981571    1.313723844352    4.068589971000
 H   -0.000000000000    2.317566084612    2.894805063217
 H    0.895089981571    1.313723844352    4.068589971000
