20

 H   -0.895090000000    1.313720000000   -4.953336085009
 H   -0.000000000000    2.317560000000   -3.779546085009
 H    0.895090000000    1.313720000000   -4.953336085009
 C   -0.000000000000    1.362230000000   -4.320096085009
 S    0.000000000000    0.000000000000   -3.100146085009
 C    0.000000000000   -1.362230000000   -4.320096085009
 H    0.895090000000   -1.313720000000   -4.953336085009
 H    0.000000000000   -2.317560000000   -3.779546085009
 H   -0.895090000000   -1.313720000000   -4.953336085009
RB   -2.918480000000   -0.000000000000    0.294293914991
RB    2.918480000000    0.000000000000    0.294293914991
 S    0.000000000000    0.000000000000    2.294293914991
 C    0.000000000000   -1.362230791191    3.514248051027
 H    0.895089981571   -1.313723844352    4.147485132300
 H    0.000000000000   -2.317566084612    2.973700224518
 H   -0.895089981571   -1.313723844352    4.147485132300
 C   -0.000000000000    1.362230791191    3.514248051027
 H   -0.895089981571    1.313723844352    4.147485132300
 H   -0.000000000000    2.317566084612    2.973700224518
 H    0.895089981571    1.313723844352    4.147485132300
