20

 H   -0.895090000000    1.313720000000   -4.974440923709
 H   -0.000000000000    2.317560000000   -3.800650923709
 H    0.895090000000    1.313720000000   -4.974440923709
 C   -0.000000000000    1.362230000000   -4.341200923709
 S    0.000000000000    0.000000000000   -3.121250923709
 C    0.000000000000   -1.362230000000   -4.341200923709
 H    0.895090000000   -1.313720000000   -4.974440923709
 H    0.000000000000   -2.317560000000   -3.800650923709
 H   -0.895090000000   -1.313720000000   -4.974440923709
RB   -2.918480000000   -0.000000000000    0.273189076291
RB    2.918480000000    0.000000000000    0.273189076291
 S    0.000000000000    0.000000000000    2.373189076291
 C    0.000000000000   -1.362230791191    3.593143212327
 H    0.895089981571   -1.313723844352    4.226380293601
 H    0.000000000000   -2.317566084612    3.052595385818
 H   -0.895089981571   -1.313723844352    4.226380293601
 C   -0.000000000000    1.362230791191    3.593143212327
 H   -0.895089981571    1.313723844352    4.226380293601
 H   -0.000000000000    2.317566084612    3.052595385818
 H    0.895089981571    1.313723844352    4.226380293601
