20

 H   -0.895090000000    1.313720000000   -5.058860278507
 H   -0.000000000000    2.317560000000   -3.885070278507
 H    0.895090000000    1.313720000000   -5.058860278507
 C   -0.000000000000    1.362230000000   -4.425620278507
 S    0.000000000000    0.000000000000   -3.205670278507
 C    0.000000000000   -1.362230000000   -4.425620278507
 H    0.895090000000   -1.313720000000   -5.058860278507
 H    0.000000000000   -2.317560000000   -3.885070278507
 H   -0.895090000000   -1.313720000000   -5.058860278507
RB   -2.918480000000   -0.000000000000    0.188769721493
RB    2.918480000000    0.000000000000    0.188769721493
 S    0.000000000000    0.000000000000    2.688769721493
 C    0.000000000000   -1.362230791191    3.908723857529
 H    0.895089981571   -1.313723844352    4.541960938802
 H    0.000000000000   -2.317566084612    3.368176031019
 H   -0.895089981571   -1.313723844352    4.541960938802
 C   -0.000000000000    1.362230791191    3.908723857529
 H   -0.895089981571    1.313723844352    4.541960938802
 H   -0.000000000000    2.317566084612    3.368176031019
 H    0.895089981571    1.313723844352    4.541960938802
