20

 H   -0.895090000000    1.313720000000   -5.122174794606
 H   -0.000000000000    2.317560000000   -3.948384794606
 H    0.895090000000    1.313720000000   -5.122174794606
 C   -0.000000000000    1.362230000000   -4.488934794606
 S    0.000000000000    0.000000000000   -3.268984794606
 C    0.000000000000   -1.362230000000   -4.488934794606
 H    0.895090000000   -1.313720000000   -5.122174794606
 H    0.000000000000   -2.317560000000   -3.948384794606
 H   -0.895090000000   -1.313720000000   -5.122174794606
RB   -2.918480000000   -0.000000000000    0.125455205394
RB    2.918480000000    0.000000000000    0.125455205394
 S    0.000000000000    0.000000000000    2.925455205394
 C    0.000000000000   -1.362230791191    4.145409341430
 H    0.895089981571   -1.313723844352    4.778646422703
 H    0.000000000000   -2.317566084612    3.604861514921
 H   -0.895089981571   -1.313723844352    4.778646422703
 C   -0.000000000000    1.362230791191    4.145409341430
 H   -0.895089981571    1.313723844352    4.778646422703
 H   -0.000000000000    2.317566084612    3.604861514921
 H    0.895089981571    1.313723844352    4.778646422703
