20

 H   -0.895090000000    1.313720000000   -5.206594149405
 H   -0.000000000000    2.317560000000   -4.032804149405
 H    0.895090000000    1.313720000000   -5.206594149405
 C   -0.000000000000    1.362230000000   -4.573354149405
 S    0.000000000000    0.000000000000   -3.353404149405
 C    0.000000000000   -1.362230000000   -4.573354149405
 H    0.895090000000   -1.313720000000   -5.206594149405
 H    0.000000000000   -2.317560000000   -4.032804149405
 H   -0.895090000000   -1.313720000000   -5.206594149405
RB   -2.918480000000   -0.000000000000    0.041035850595
RB    2.918480000000    0.000000000000    0.041035850595
 S    0.000000000000    0.000000000000    3.241035850595
 C    0.000000000000   -1.362230791191    4.460989986631
 H    0.895089981571   -1.313723844352    5.094227067905
 H    0.000000000000   -2.317566084612    3.920442160122
 H   -0.895089981571   -1.313723844352    5.094227067905
 C   -0.000000000000    1.362230791191    4.460989986631
 H   -0.895089981571    1.313723844352    5.094227067905
 H   -0.000000000000    2.317566084612    3.920442160122
 H    0.895089981571    1.313723844352    5.094227067905
