20

 H   -0.895090000000    1.313720000000   -5.248803826804
 H   -0.000000000000    2.317560000000   -4.075013826804
 H    0.895090000000    1.313720000000   -5.248803826804
 C   -0.000000000000    1.362230000000   -4.615563826804
 S    0.000000000000    0.000000000000   -3.395613826804
 C    0.000000000000   -1.362230000000   -4.615563826804
 H    0.895090000000   -1.313720000000   -5.248803826804
 H    0.000000000000   -2.317560000000   -4.075013826804
 H   -0.895090000000   -1.313720000000   -5.248803826804
RB   -2.918480000000   -0.000000000000   -0.001173826804
RB    2.918480000000    0.000000000000   -0.001173826804
 S    0.000000000000    0.000000000000    3.398826173196
 C    0.000000000000   -1.362230791191    4.618780309232
 H    0.895089981571   -1.313723844352    5.252017390506
 H    0.000000000000   -2.317566084612    4.078232482723
 H   -0.895089981571   -1.313723844352    5.252017390506
 C   -0.000000000000    1.362230791191    4.618780309232
 H   -0.895089981571    1.313723844352    5.252017390506
 H   -0.000000000000    2.317566084612    4.078232482723
 H    0.895089981571    1.313723844352    5.252017390506
