20

 H   -0.895090000000    1.313720000000   -5.291013504203
 H   -0.000000000000    2.317560000000   -4.117223504203
 H    0.895090000000    1.313720000000   -5.291013504203
 C   -0.000000000000    1.362230000000   -4.657773504203
 S    0.000000000000    0.000000000000   -3.437823504203
 C    0.000000000000   -1.362230000000   -4.657773504203
 H    0.895090000000   -1.313720000000   -5.291013504203
 H    0.000000000000   -2.317560000000   -4.117223504203
 H   -0.895090000000   -1.313720000000   -5.291013504203
RB   -2.918480000000   -0.000000000000   -0.043383504203
RB    2.918480000000    0.000000000000   -0.043383504203
 S    0.000000000000    0.000000000000    3.556616495797
 C    0.000000000000   -1.362230791191    4.776570631833
 H    0.895089981571   -1.313723844352    5.409807713106
 H    0.000000000000   -2.317566084612    4.236022805324
 H   -0.895089981571   -1.313723844352    5.409807713106
 C   -0.000000000000    1.362230791191    4.776570631833
 H   -0.895089981571    1.313723844352    5.409807713106
 H   -0.000000000000    2.317566084612    4.236022805324
 H    0.895089981571    1.313723844352    5.409807713106
