20

 H   -0.895090000000    1.313720000000   -5.333223181602
 H   -0.000000000000    2.317560000000   -4.159433181602
 H    0.895090000000    1.313720000000   -5.333223181602
 C   -0.000000000000    1.362230000000   -4.699983181602
 S    0.000000000000    0.000000000000   -3.480033181602
 C    0.000000000000   -1.362230000000   -4.699983181602
 H    0.895090000000   -1.313720000000   -5.333223181602
 H    0.000000000000   -2.317560000000   -4.159433181602
 H   -0.895090000000   -1.313720000000   -5.333223181602
RB   -2.918480000000   -0.000000000000   -0.085593181602
RB    2.918480000000    0.000000000000   -0.085593181602
 S    0.000000000000    0.000000000000    3.714406818398
 C    0.000000000000   -1.362230791191    4.934360954434
 H    0.895089981571   -1.313723844352    5.567598035707
 H    0.000000000000   -2.317566084612    4.393813127924
 H   -0.895089981571   -1.313723844352    5.567598035707
 C   -0.000000000000    1.362230791191    4.934360954434
 H   -0.895089981571    1.313723844352    5.567598035707
 H   -0.000000000000    2.317566084612    4.393813127924
 H    0.895089981571    1.313723844352    5.567598035707
