20

 H   -0.895090000000    1.313720000000   -5.354328020302
 H   -0.000000000000    2.317560000000   -4.180538020302
 H    0.895090000000    1.313720000000   -5.354328020302
 C   -0.000000000000    1.362230000000   -4.721088020302
 S    0.000000000000    0.000000000000   -3.501138020302
 C    0.000000000000   -1.362230000000   -4.721088020302
 H    0.895090000000   -1.313720000000   -5.354328020302
 H    0.000000000000   -2.317560000000   -4.180538020302
 H   -0.895090000000   -1.313720000000   -5.354328020302
RB   -2.918480000000   -0.000000000000   -0.106698020302
RB    2.918480000000    0.000000000000   -0.106698020302
 S    0.000000000000    0.000000000000    3.793301979698
 C    0.000000000000   -1.362230791191    5.013256115734
 H    0.895089981571   -1.313723844352    5.646493197007
 H    0.000000000000   -2.317566084612    4.472708289225
 H   -0.895089981571   -1.313723844352    5.646493197007
 C   -0.000000000000    1.362230791191    5.013256115734
 H   -0.895089981571    1.313723844352    5.646493197007
 H   -0.000000000000    2.317566084612    4.472708289225
 H    0.895089981571    1.313723844352    5.646493197007
