20

 H   -0.895090000000    1.313720000000   -5.375432859002
 H   -0.000000000000    2.317560000000   -4.201642859002
 H    0.895090000000    1.313720000000   -5.375432859002
 C   -0.000000000000    1.362230000000   -4.742192859002
 S    0.000000000000    0.000000000000   -3.522242859002
 C    0.000000000000   -1.362230000000   -4.742192859002
 H    0.895090000000   -1.313720000000   -5.375432859002
 H    0.000000000000   -2.317560000000   -4.201642859002
 H   -0.895090000000   -1.313720000000   -5.375432859002
RB   -2.918480000000   -0.000000000000   -0.127802859002
RB    2.918480000000    0.000000000000   -0.127802859002
 S    0.000000000000    0.000000000000    3.872197140998
 C    0.000000000000   -1.362230791191    5.092151277034
 H    0.895089981571   -1.313723844352    5.725388358308
 H    0.000000000000   -2.317566084612    4.551603450525
 H   -0.895089981571   -1.313723844352    5.725388358308
 C   -0.000000000000    1.362230791191    5.092151277034
 H   -0.895089981571    1.313723844352    5.725388358308
 H   -0.000000000000    2.317566084612    4.551603450525
 H    0.895089981571    1.313723844352    5.725388358308
