20

 H   -0.895090000000    1.313720000000   -5.396537697701
 H   -0.000000000000    2.317560000000   -4.222747697701
 H    0.895090000000    1.313720000000   -5.396537697701
 C   -0.000000000000    1.362230000000   -4.763297697701
 S    0.000000000000    0.000000000000   -3.543347697701
 C    0.000000000000   -1.362230000000   -4.763297697701
 H    0.895090000000   -1.313720000000   -5.396537697701
 H    0.000000000000   -2.317560000000   -4.222747697701
 H   -0.895090000000   -1.313720000000   -5.396537697701
RB   -2.918480000000   -0.000000000000   -0.148907697701
RB    2.918480000000    0.000000000000   -0.148907697701
 S    0.000000000000    0.000000000000    3.951092302299
 C    0.000000000000   -1.362230791191    5.171046438335
 H    0.895089981571   -1.313723844352    5.804283519608
 H    0.000000000000   -2.317566084612    4.630498611826
 H   -0.895089981571   -1.313723844352    5.804283519608
 C   -0.000000000000    1.362230791191    5.171046438335
 H   -0.895089981571    1.313723844352    5.804283519608
 H   -0.000000000000    2.317566084612    4.630498611826
 H    0.895089981571    1.313723844352    5.804283519608
