20

 H   -0.895090000000    1.313720000000   -5.480957052500
 H   -0.000000000000    2.317560000000   -4.307167052500
 H    0.895090000000    1.313720000000   -5.480957052500
 C   -0.000000000000    1.362230000000   -4.847717052500
 S    0.000000000000    0.000000000000   -3.627767052500
 C    0.000000000000   -1.362230000000   -4.847717052500
 H    0.895090000000   -1.313720000000   -5.480957052500
 H    0.000000000000   -2.317560000000   -4.307167052500
 H   -0.895090000000   -1.313720000000   -5.480957052500
RB   -2.918480000000   -0.000000000000   -0.233327052500
RB    2.918480000000    0.000000000000   -0.233327052500
 S    0.000000000000    0.000000000000    4.266672947500
 C    0.000000000000   -1.362230791191    5.486627083536
 H    0.895089981571   -1.313723844352    6.119864164810
 H    0.000000000000   -2.317566084612    4.946079257027
 H   -0.895089981571   -1.313723844352    6.119864164810
 C   -0.000000000000    1.362230791191    5.486627083536
 H   -0.895089981571    1.313723844352    6.119864164810
 H   -0.000000000000    2.317566084612    4.946079257027
 H    0.895089981571    1.313723844352    6.119864164810
