20

 H   -0.895090000000    1.313720000000   -5.502061891199
 H   -0.000000000000    2.317560000000   -4.328271891199
 H    0.895090000000    1.313720000000   -5.502061891199
 C   -0.000000000000    1.362230000000   -4.868821891199
 S    0.000000000000    0.000000000000   -3.648871891199
 C    0.000000000000   -1.362230000000   -4.868821891199
 H    0.895090000000   -1.313720000000   -5.502061891199
 H    0.000000000000   -2.317560000000   -4.328271891199
 H   -0.895090000000   -1.313720000000   -5.502061891199
RB   -2.918480000000   -0.000000000000   -0.254431891199
RB    2.918480000000    0.000000000000   -0.254431891199
 S    0.000000000000    0.000000000000    4.345568108801
 C    0.000000000000   -1.362230791191    5.565522244837
 H    0.895089981571   -1.313723844352    6.198759326110
 H    0.000000000000   -2.317566084612    5.024974418328
 H   -0.895089981571   -1.313723844352    6.198759326110
 C   -0.000000000000    1.362230791191    5.565522244837
 H   -0.895089981571    1.313723844352    6.198759326110
 H   -0.000000000000    2.317566084612    5.024974418328
 H    0.895089981571    1.313723844352    6.198759326110
