20

 H   -0.895090000000    1.313720000000   -5.544271568599
 H   -0.000000000000    2.317560000000   -4.370481568599
 H    0.895090000000    1.313720000000   -5.544271568599
 C   -0.000000000000    1.362230000000   -4.911031568599
 S    0.000000000000    0.000000000000   -3.691081568599
 C    0.000000000000   -1.362230000000   -4.911031568599
 H    0.895090000000   -1.313720000000   -5.544271568599
 H    0.000000000000   -2.317560000000   -4.370481568599
 H   -0.895090000000   -1.313720000000   -5.544271568599
RB   -2.918480000000   -0.000000000000   -0.296641568599
RB    2.918480000000    0.000000000000   -0.296641568599
 S    0.000000000000    0.000000000000    4.503358431401
 C    0.000000000000   -1.362230791191    5.723312567437
 H    0.895089981571   -1.313723844352    6.356549648711
 H    0.000000000000   -2.317566084612    5.182764740928
 H   -0.895089981571   -1.313723844352    6.356549648711
 C   -0.000000000000    1.362230791191    5.723312567437
 H   -0.895089981571    1.313723844352    6.356549648711
 H   -0.000000000000    2.317566084612    5.182764740928
 H    0.895089981571    1.313723844352    6.356549648711
