20

 H   -0.895090000000    1.313720000000   -5.565376407298
 H   -0.000000000000    2.317560000000   -4.391586407298
 H    0.895090000000    1.313720000000   -5.565376407298
 C   -0.000000000000    1.362230000000   -4.932136407298
 S    0.000000000000    0.000000000000   -3.712186407298
 C    0.000000000000   -1.362230000000   -4.932136407298
 H    0.895090000000   -1.313720000000   -5.565376407298
 H    0.000000000000   -2.317560000000   -4.391586407298
 H   -0.895090000000   -1.313720000000   -5.565376407298
RB   -2.918480000000   -0.000000000000   -0.317746407298
RB    2.918480000000    0.000000000000   -0.317746407298
 S    0.000000000000    0.000000000000    4.582253592702
 C    0.000000000000   -1.362230791191    5.802207728738
 H    0.895089981571   -1.313723844352    6.435444810011
 H    0.000000000000   -2.317566084612    5.261659902229
 H   -0.895089981571   -1.313723844352    6.435444810011
 C   -0.000000000000    1.362230791191    5.802207728738
 H   -0.895089981571    1.313723844352    6.435444810011
 H   -0.000000000000    2.317566084612    5.261659902229
 H    0.895089981571    1.313723844352    6.435444810011
