20

 H   -0.895090000000    1.313720000000   -5.628690923397
 H   -0.000000000000    2.317560000000   -4.454900923397
 H    0.895090000000    1.313720000000   -5.628690923397
 C   -0.000000000000    1.362230000000   -4.995450923397
 S    0.000000000000    0.000000000000   -3.775500923397
 C    0.000000000000   -1.362230000000   -4.995450923397
 H    0.895090000000   -1.313720000000   -5.628690923397
 H    0.000000000000   -2.317560000000   -4.454900923397
 H   -0.895090000000   -1.313720000000   -5.628690923397
RB   -2.918480000000   -0.000000000000   -0.381060923397
RB    2.918480000000    0.000000000000   -0.381060923397
 S    0.000000000000    0.000000000000    4.818939076603
 C    0.000000000000   -1.362230791191    6.038893212639
 H    0.895089981571   -1.313723844352    6.672130293912
 H    0.000000000000   -2.317566084612    5.498345386130
 H   -0.895089981571   -1.313723844352    6.672130293912
 C   -0.000000000000    1.362230791191    6.038893212639
 H   -0.895089981571    1.313723844352    6.672130293912
 H   -0.000000000000    2.317566084612    5.498345386130
 H    0.895089981571    1.313723844352    6.672130293912
