20

 H   -0.895090000000    1.313720000000   -5.670900600796
 H   -0.000000000000    2.317560000000   -4.497110600796
 H    0.895090000000    1.313720000000   -5.670900600796
 C   -0.000000000000    1.362230000000   -5.037660600796
 S    0.000000000000    0.000000000000   -3.817710600796
 C    0.000000000000   -1.362230000000   -5.037660600796
 H    0.895090000000   -1.313720000000   -5.670900600796
 H    0.000000000000   -2.317560000000   -4.497110600796
 H   -0.895090000000   -1.313720000000   -5.670900600796
RB   -2.918480000000   -0.000000000000   -0.423270600796
RB    2.918480000000    0.000000000000   -0.423270600796
 S    0.000000000000    0.000000000000    4.976729399204
 C    0.000000000000   -1.362230791191    6.196683535240
 H    0.895089981571   -1.313723844352    6.829920616513
 H    0.000000000000   -2.317566084612    5.656135708731
 H   -0.895089981571   -1.313723844352    6.829920616513
 C   -0.000000000000    1.362230791191    6.196683535240
 H   -0.895089981571    1.313723844352    6.829920616513
 H   -0.000000000000    2.317566084612    5.656135708731
 H    0.895089981571    1.313723844352    6.829920616513
