20

 H   -0.895090000000    1.313720000000   -5.755319955595
 H   -0.000000000000    2.317560000000   -4.581529955595
 H    0.895090000000    1.313720000000   -5.755319955595
 C   -0.000000000000    1.362230000000   -5.122079955595
 S    0.000000000000    0.000000000000   -3.902129955595
 C    0.000000000000   -1.362230000000   -5.122079955595
 H    0.895090000000   -1.313720000000   -5.755319955595
 H    0.000000000000   -2.317560000000   -4.581529955595
 H   -0.895090000000   -1.313720000000   -5.755319955595
RB   -2.918480000000   -0.000000000000   -0.507689955595
RB    2.918480000000    0.000000000000   -0.507689955595
 S    0.000000000000    0.000000000000    5.292310044405
 C    0.000000000000   -1.362230791191    6.512264180441
 H    0.895089981571   -1.313723844352    7.145501261715
 H    0.000000000000   -2.317566084612    5.971716353932
 H   -0.895089981571   -1.313723844352    7.145501261715
 C   -0.000000000000    1.362230791191    6.512264180441
 H   -0.895089981571    1.313723844352    7.145501261715
 H   -0.000000000000    2.317566084612    5.971716353932
 H    0.895089981571    1.313723844352    7.145501261715
