20

 H   -0.895090000000    1.313720000000   -5.797529632994
 H   -0.000000000000    2.317560000000   -4.623739632994
 H    0.895090000000    1.313720000000   -5.797529632994
 C   -0.000000000000    1.362230000000   -5.164289632994
 S    0.000000000000    0.000000000000   -3.944339632994
 C    0.000000000000   -1.362230000000   -5.164289632994
 H    0.895090000000   -1.313720000000   -5.797529632994
 H    0.000000000000   -2.317560000000   -4.623739632994
 H   -0.895090000000   -1.313720000000   -5.797529632994
RB   -2.918480000000   -0.000000000000   -0.549899632994
RB    2.918480000000    0.000000000000   -0.549899632994
 S    0.000000000000    0.000000000000    5.450100367006
 C    0.000000000000   -1.362230791191    6.670054503042
 H    0.895089981571   -1.313723844352    7.303291584316
 H    0.000000000000   -2.317566084612    6.129506676533
 H   -0.895089981571   -1.313723844352    7.303291584316
 C   -0.000000000000    1.362230791191    6.670054503042
 H   -0.895089981571    1.313723844352    7.303291584316
 H   -0.000000000000    2.317566084612    6.129506676533
 H    0.895089981571    1.313723844352    7.303291584316
