20

 H   -0.895090000000    1.313720000000   -5.818634471694
 H   -0.000000000000    2.317560000000   -4.644844471694
 H    0.895090000000    1.313720000000   -5.818634471694
 C   -0.000000000000    1.362230000000   -5.185394471694
 S    0.000000000000    0.000000000000   -3.965444471694
 C    0.000000000000   -1.362230000000   -5.185394471694
 H    0.895090000000   -1.313720000000   -5.818634471694
 H    0.000000000000   -2.317560000000   -4.644844471694
 H   -0.895090000000   -1.313720000000   -5.818634471694
RB   -2.918480000000   -0.000000000000   -0.571004471694
RB    2.918480000000    0.000000000000   -0.571004471694
 S    0.000000000000    0.000000000000    5.528995528306
 C    0.000000000000   -1.362230791191    6.748949664342
 H    0.895089981571   -1.313723844352    7.382186745616
 H    0.000000000000   -2.317566084612    6.208401837833
 H   -0.895089981571   -1.313723844352    7.382186745616
 C   -0.000000000000    1.362230791191    6.748949664342
 H   -0.895089981571    1.313723844352    7.382186745616
 H   -0.000000000000    2.317566084612    6.208401837833
 H    0.895089981571    1.313723844352    7.382186745616
