20

 H   -0.895090000000    1.313720000000   -5.839739310393
 H   -0.000000000000    2.317560000000   -4.665949310393
 H    0.895090000000    1.313720000000   -5.839739310393
 C   -0.000000000000    1.362230000000   -5.206499310393
 S    0.000000000000    0.000000000000   -3.986549310393
 C    0.000000000000   -1.362230000000   -5.206499310393
 H    0.895090000000   -1.313720000000   -5.839739310393
 H    0.000000000000   -2.317560000000   -4.665949310393
 H   -0.895090000000   -1.313720000000   -5.839739310393
RB   -2.918480000000   -0.000000000000   -0.592109310393
RB    2.918480000000    0.000000000000   -0.592109310393
 S    0.000000000000    0.000000000000    5.607890689607
 C    0.000000000000   -1.362230791191    6.827844825643
 H    0.895089981571   -1.313723844352    7.461081906916
 H    0.000000000000   -2.317566084612    6.287296999134
 H   -0.895089981571   -1.313723844352    7.461081906916
 C   -0.000000000000    1.362230791191    6.827844825643
 H   -0.895089981571    1.313723844352    7.461081906916
 H   -0.000000000000    2.317566084612    6.287296999134
 H    0.895089981571    1.313723844352    7.461081906916
