20

 H   -0.895090000000    1.313720000000   -5.945263503891
 H   -0.000000000000    2.317560000000   -4.771473503891
 H    0.895090000000    1.313720000000   -5.945263503891
 C   -0.000000000000    1.362230000000   -5.312023503891
 S    0.000000000000    0.000000000000   -4.092073503891
 C    0.000000000000   -1.362230000000   -5.312023503891
 H    0.895090000000   -1.313720000000   -5.945263503891
 H    0.000000000000   -2.317560000000   -4.771473503891
 H   -0.895090000000   -1.313720000000   -5.945263503891
RB   -2.918480000000   -0.000000000000   -0.697633503891
RB    2.918480000000    0.000000000000   -0.697633503891
 S    0.000000000000    0.000000000000    6.002366496109
 C    0.000000000000   -1.362230791191    7.222320632145
 H    0.895089981571   -1.313723844352    7.855557713418
 H    0.000000000000   -2.317566084612    6.681772805636
 H   -0.895089981571   -1.313723844352    7.855557713418
 C   -0.000000000000    1.362230791191    7.222320632145
 H   -0.895089981571    1.313723844352    7.855557713418
 H   -0.000000000000    2.317566084612    6.681772805636
 H    0.895089981571    1.313723844352    7.855557713418
