20

 H   -0.895090000000    1.313720000000   -6.008578019990
 H   -0.000000000000    2.317560000000   -4.834788019990
 H    0.895090000000    1.313720000000   -6.008578019990
 C   -0.000000000000    1.362230000000   -5.375338019990
 S    0.000000000000    0.000000000000   -4.155388019990
 C    0.000000000000   -1.362230000000   -5.375338019990
 H    0.895090000000   -1.313720000000   -6.008578019990
 H    0.000000000000   -2.317560000000   -4.834788019990
 H   -0.895090000000   -1.313720000000   -6.008578019990
RB   -2.918480000000   -0.000000000000   -0.760948019990
RB    2.918480000000    0.000000000000   -0.760948019990
 S    0.000000000000    0.000000000000    6.239051980010
 C    0.000000000000   -1.362230791191    7.459006116046
 H    0.895089981571   -1.313723844352    8.092243197319
 H    0.000000000000   -2.317566084612    6.918458289537
 H   -0.895089981571   -1.313723844352    8.092243197319
 C   -0.000000000000    1.362230791191    7.459006116046
 H   -0.895089981571    1.313723844352    8.092243197319
 H   -0.000000000000    2.317566084612    6.918458289537
 H    0.895089981571    1.313723844352    8.092243197319
