20

 H   -0.895090000000    1.313720000000   -6.029682858690
 H   -0.000000000000    2.317560000000   -4.855892858690
 H    0.895090000000    1.313720000000   -6.029682858690
 C   -0.000000000000    1.362230000000   -5.396442858690
 S    0.000000000000    0.000000000000   -4.176492858690
 C    0.000000000000   -1.362230000000   -5.396442858690
 H    0.895090000000   -1.313720000000   -6.029682858690
 H    0.000000000000   -2.317560000000   -4.855892858690
 H   -0.895090000000   -1.313720000000   -6.029682858690
RB   -2.918480000000   -0.000000000000   -0.782052858690
RB    2.918480000000    0.000000000000   -0.782052858690
 S    0.000000000000    0.000000000000    6.317947141310
 C    0.000000000000   -1.362230791191    7.537901277346
 H    0.895089981571   -1.313723844352    8.171138358620
 H    0.000000000000   -2.317566084612    6.997353450837
 H   -0.895089981571   -1.313723844352    8.171138358620
 C   -0.000000000000    1.362230791191    7.537901277346
 H   -0.895089981571    1.313723844352    8.171138358620
 H   -0.000000000000    2.317566084612    6.997353450837
 H    0.895089981571    1.313723844352    8.171138358620
