20

 H   -0.895090000000    1.313720000000   -6.092997374789
 H   -0.000000000000    2.317560000000   -4.919207374789
 H    0.895090000000    1.313720000000   -6.092997374789
 C   -0.000000000000    1.362230000000   -5.459757374789
 S    0.000000000000    0.000000000000   -4.239807374789
 C    0.000000000000   -1.362230000000   -5.459757374789
 H    0.895090000000   -1.313720000000   -6.092997374789
 H    0.000000000000   -2.317560000000   -4.919207374789
 H   -0.895090000000   -1.313720000000   -6.092997374789
RB   -2.918480000000   -0.000000000000   -0.845367374789
RB    2.918480000000    0.000000000000   -0.845367374789
 S    0.000000000000    0.000000000000    6.554632625211
 C    0.000000000000   -1.362230791191    7.774586761247
 H    0.895089981571   -1.313723844352    8.407823842521
 H    0.000000000000   -2.317566084612    7.234038934738
 H   -0.895089981571   -1.313723844352    8.407823842521
 C   -0.000000000000    1.362230791191    7.774586761247
 H   -0.895089981571    1.313723844352    8.407823842521
 H   -0.000000000000    2.317566084612    7.234038934738
 H    0.895089981571    1.313723844352    8.407823842521
