20

 H   -0.895090000000    1.313720000000   -6.135207052188
 H   -0.000000000000    2.317560000000   -4.961417052188
 H    0.895090000000    1.313720000000   -6.135207052188
 C   -0.000000000000    1.362230000000   -5.501967052188
 S    0.000000000000    0.000000000000   -4.282017052188
 C    0.000000000000   -1.362230000000   -5.501967052188
 H    0.895090000000   -1.313720000000   -6.135207052188
 H    0.000000000000   -2.317560000000   -4.961417052188
 H   -0.895090000000   -1.313720000000   -6.135207052188
RB   -2.918480000000   -0.000000000000   -0.887577052188
RB    2.918480000000    0.000000000000   -0.887577052188
 S    0.000000000000    0.000000000000    6.712422947812
 C    0.000000000000   -1.362230791191    7.932377083848
 H    0.895089981571   -1.313723844352    8.565614165122
 H    0.000000000000   -2.317566084612    7.391829257339
 H   -0.895089981571   -1.313723844352    8.565614165122
 C   -0.000000000000    1.362230791191    7.932377083848
 H   -0.895089981571    1.313723844352    8.565614165122
 H   -0.000000000000    2.317566084612    7.391829257339
 H    0.895089981571    1.313723844352    8.565614165122
