20

 H   -0.895090000000    1.313720000000   -6.156311890887
 H   -0.000000000000    2.317560000000   -4.982521890887
 H    0.895090000000    1.313720000000   -6.156311890887
 C   -0.000000000000    1.362230000000   -5.523071890887
 S    0.000000000000    0.000000000000   -4.303121890887
 C    0.000000000000   -1.362230000000   -5.523071890887
 H    0.895090000000   -1.313720000000   -6.156311890887
 H    0.000000000000   -2.317560000000   -4.982521890887
 H   -0.895090000000   -1.313720000000   -6.156311890887
RB   -2.918480000000   -0.000000000000   -0.908681890887
RB    2.918480000000    0.000000000000   -0.908681890887
 S    0.000000000000    0.000000000000    6.791318109113
 C    0.000000000000   -1.362230791191    8.011272245149
 H    0.895089981571   -1.313723844352    8.644509326422
 H    0.000000000000   -2.317566084612    7.470724418639
 H   -0.895089981571   -1.313723844352    8.644509326422
 C   -0.000000000000    1.362230791191    8.011272245149
 H   -0.895089981571    1.313723844352    8.644509326422
 H   -0.000000000000    2.317566084612    7.470724418639
 H    0.895089981571    1.313723844352    8.644509326422
