20

 H   -0.895090000000    1.313720000000   -6.219626406986
 H   -0.000000000000    2.317560000000   -5.045836406986
 H    0.895090000000    1.313720000000   -6.219626406986
 C   -0.000000000000    1.362230000000   -5.586386406986
 S    0.000000000000    0.000000000000   -4.366436406986
 C    0.000000000000   -1.362230000000   -5.586386406986
 H    0.895090000000   -1.313720000000   -6.219626406986
 H    0.000000000000   -2.317560000000   -5.045836406986
 H   -0.895090000000   -1.313720000000   -6.219626406986
RB   -2.918480000000   -0.000000000000   -0.971996406986
RB    2.918480000000    0.000000000000   -0.971996406986
 S    0.000000000000    0.000000000000    7.028003593014
 C    0.000000000000   -1.362230791191    8.247957729050
 H    0.895089981571   -1.313723844352    8.881194810323
 H    0.000000000000   -2.317566084612    7.707409902541
 H   -0.895089981571   -1.313723844352    8.881194810323
 C   -0.000000000000    1.362230791191    8.247957729050
 H   -0.895089981571    1.313723844352    8.881194810323
 H   -0.000000000000    2.317566084612    7.707409902541
 H    0.895089981571    1.313723844352    8.881194810323
