20

 H   -0.895090000000    1.313720000000   -6.304045761785
 H   -0.000000000000    2.317560000000   -5.130255761785
 H    0.895090000000    1.313720000000   -6.304045761785
 C   -0.000000000000    1.362230000000   -5.670805761785
 S    0.000000000000    0.000000000000   -4.450855761785
 C    0.000000000000   -1.362230000000   -5.670805761785
 H    0.895090000000   -1.313720000000   -6.304045761785
 H    0.000000000000   -2.317560000000   -5.130255761785
 H   -0.895090000000   -1.313720000000   -6.304045761785
RB   -2.918480000000   -0.000000000000   -1.056415761785
RB    2.918480000000    0.000000000000   -1.056415761785
 S    0.000000000000    0.000000000000    7.343584238215
 C    0.000000000000   -1.362230791191    8.563538374251
 H    0.895089981571   -1.313723844352    9.196775455525
 H    0.000000000000   -2.317566084612    8.022990547742
 H   -0.895089981571   -1.313723844352    9.196775455525
 C   -0.000000000000    1.362230791191    8.563538374251
 H   -0.895089981571    1.313723844352    9.196775455525
 H   -0.000000000000    2.317566084612    8.022990547742
 H    0.895089981571    1.313723844352    9.196775455525
