20

 H   -0.895090000000    1.313720000000   -6.325150600484
 H   -0.000000000000    2.317560000000   -5.151360600484
 H    0.895090000000    1.313720000000   -6.325150600484
 C   -0.000000000000    1.362230000000   -5.691910600484
 S    0.000000000000    0.000000000000   -4.471960600484
 C    0.000000000000   -1.362230000000   -5.691910600484
 H    0.895090000000   -1.313720000000   -6.325150600484
 H    0.000000000000   -2.317560000000   -5.151360600484
 H   -0.895090000000   -1.313720000000   -6.325150600484
RB   -2.918480000000   -0.000000000000   -1.077520600484
RB    2.918480000000    0.000000000000   -1.077520600484
 S    0.000000000000    0.000000000000    7.422479399516
 C    0.000000000000   -1.362230791191    8.642433535552
 H    0.895089981571   -1.313723844352    9.275670616825
 H    0.000000000000   -2.317566084612    8.101885709043
 H   -0.895089981571   -1.313723844352    9.275670616825
 C   -0.000000000000    1.362230791191    8.642433535552
 H   -0.895089981571    1.313723844352    9.275670616825
 H   -0.000000000000    2.317566084612    8.101885709043
 H    0.895089981571    1.313723844352    9.275670616825
