20

 H   -0.895090000000    1.313720000000   -6.346255439184
 H   -0.000000000000    2.317560000000   -5.172465439184
 H    0.895090000000    1.313720000000   -6.346255439184
 C   -0.000000000000    1.362230000000   -5.713015439184
 S    0.000000000000    0.000000000000   -4.493065439184
 C    0.000000000000   -1.362230000000   -5.713015439184
 H    0.895090000000   -1.313720000000   -6.346255439184
 H    0.000000000000   -2.317560000000   -5.172465439184
 H   -0.895090000000   -1.313720000000   -6.346255439184
RB   -2.918480000000   -0.000000000000   -1.098625439184
RB    2.918480000000    0.000000000000   -1.098625439184
 S    0.000000000000    0.000000000000    7.501374560816
 C    0.000000000000   -1.362230791191    8.721328696852
 H    0.895089981571   -1.313723844352    9.354565778126
 H    0.000000000000   -2.317566084612    8.180780870343
 H   -0.895089981571   -1.313723844352    9.354565778126
 C   -0.000000000000    1.362230791191    8.721328696852
 H   -0.895089981571    1.313723844352    9.354565778126
 H   -0.000000000000    2.317566084612    8.180780870343
 H    0.895089981571    1.313723844352    9.354565778126
