20

 H   -0.895090000000    1.313720000000   -6.367360277884
 H   -0.000000000000    2.317560000000   -5.193570277884
 H    0.895090000000    1.313720000000   -6.367360277884
 C   -0.000000000000    1.362230000000   -5.734120277884
 S    0.000000000000    0.000000000000   -4.514170277884
 C    0.000000000000   -1.362230000000   -5.734120277884
 H    0.895090000000   -1.313720000000   -6.367360277884
 H    0.000000000000   -2.317560000000   -5.193570277884
 H   -0.895090000000   -1.313720000000   -6.367360277884
RB   -2.918480000000   -0.000000000000   -1.119730277884
RB    2.918480000000    0.000000000000   -1.119730277884
 S    0.000000000000    0.000000000000    7.580269722116
 C    0.000000000000   -1.362230791191    8.800223858152
 H    0.895089981571   -1.313723844352    9.433460939426
 H    0.000000000000   -2.317566084612    8.259676031643
 H   -0.895089981571   -1.313723844352    9.433460939426
 C   -0.000000000000    1.362230791191    8.800223858152
 H   -0.895089981571    1.313723844352    9.433460939426
 H   -0.000000000000    2.317566084612    8.259676031643
 H    0.895089981571    1.313723844352    9.433460939426
