20

 H   -0.895090000000    1.313720000000   -6.430674793982
 H   -0.000000000000    2.317560000000   -5.256884793982
 H    0.895090000000    1.313720000000   -6.430674793982
 C   -0.000000000000    1.362230000000   -5.797434793982
 S    0.000000000000    0.000000000000   -4.577484793982
 C    0.000000000000   -1.362230000000   -5.797434793982
 H    0.895090000000   -1.313720000000   -6.430674793982
 H    0.000000000000   -2.317560000000   -5.256884793982
 H   -0.895090000000   -1.313720000000   -6.430674793982
RB   -2.918480000000   -0.000000000000   -1.183044793982
RB    2.918480000000    0.000000000000   -1.183044793982
 S    0.000000000000    0.000000000000    7.816955206018
 C    0.000000000000   -1.362230791191    9.036909342054
 H    0.895089981571   -1.313723844352    9.670146423327
 H    0.000000000000   -2.317566084612    8.496361515544
 H   -0.895089981571   -1.313723844352    9.670146423327
 C   -0.000000000000    1.362230791191    9.036909342054
 H   -0.895089981571    1.313723844352    9.670146423327
 H   -0.000000000000    2.317566084612    8.496361515544
 H    0.895089981571    1.313723844352    9.670146423327
