20

 H   -0.895090000000    1.313720000000   -6.451779632682
 H   -0.000000000000    2.317560000000   -5.277989632682
 H    0.895090000000    1.313720000000   -6.451779632682
 C   -0.000000000000    1.362230000000   -5.818539632682
 S    0.000000000000    0.000000000000   -4.598589632682
 C    0.000000000000   -1.362230000000   -5.818539632682
 H    0.895090000000   -1.313720000000   -6.451779632682
 H    0.000000000000   -2.317560000000   -5.277989632682
 H   -0.895090000000   -1.313720000000   -6.451779632682
RB   -2.918480000000   -0.000000000000   -1.204149632682
RB    2.918480000000    0.000000000000   -1.204149632682
 S    0.000000000000    0.000000000000    7.895850367318
 C    0.000000000000   -1.362230791191    9.115804503354
 H    0.895089981571   -1.313723844352    9.749041584627
 H    0.000000000000   -2.317566084612    8.575256676845
 H   -0.895089981571   -1.313723844352    9.749041584627
 C   -0.000000000000    1.362230791191    9.115804503354
 H   -0.895089981571    1.313723844352    9.749041584627
 H   -0.000000000000    2.317566084612    8.575256676845
 H    0.895089981571    1.313723844352    9.749041584627
