20

 H   -0.895090000000    1.313720000000   -6.493989310081
 H   -0.000000000000    2.317560000000   -5.320199310081
 H    0.895090000000    1.313720000000   -6.493989310081
 C   -0.000000000000    1.362230000000   -5.860749310081
 S    0.000000000000    0.000000000000   -4.640799310081
 C    0.000000000000   -1.362230000000   -5.860749310081
 H    0.895090000000   -1.313720000000   -6.493989310081
 H    0.000000000000   -2.317560000000   -5.320199310081
 H   -0.895090000000   -1.313720000000   -6.493989310081
RB   -2.918480000000   -0.000000000000   -1.246359310081
RB    2.918480000000    0.000000000000   -1.246359310081
 S    0.000000000000    0.000000000000    8.053640689919
 C    0.000000000000   -1.362230791191    9.273594825955
 H    0.895089981571   -1.313723844352    9.906831907228
 H    0.000000000000   -2.317566084612    8.733046999446
 H   -0.895089981571   -1.313723844352    9.906831907228
 C   -0.000000000000    1.362230791191    9.273594825955
 H   -0.895089981571    1.313723844352    9.906831907228
 H   -0.000000000000    2.317566084612    8.733046999446
 H    0.895089981571    1.313723844352    9.906831907228
