20

 H   -0.895090000000    1.313720000000   -6.557303826180
 H   -0.000000000000    2.317560000000   -5.383513826180
 H    0.895090000000    1.313720000000   -6.557303826180
 C   -0.000000000000    1.362230000000   -5.924063826180
 S    0.000000000000    0.000000000000   -4.704113826180
 C    0.000000000000   -1.362230000000   -5.924063826180
 H    0.895090000000   -1.313720000000   -6.557303826180
 H    0.000000000000   -2.317560000000   -5.383513826180
 H   -0.895090000000   -1.313720000000   -6.557303826180
RB   -2.918480000000   -0.000000000000   -1.309673826180
RB    2.918480000000    0.000000000000   -1.309673826180
 S    0.000000000000    0.000000000000    8.290326173820
 C    0.000000000000   -1.362230791191    9.510280309856
 H    0.895089981571   -1.313723844352   10.143517391129
 H    0.000000000000   -2.317566084612    8.969732483347
 H   -0.895089981571   -1.313723844352   10.143517391129
 C   -0.000000000000    1.362230791191    9.510280309856
 H   -0.895089981571    1.313723844352   10.143517391129
 H   -0.000000000000    2.317566084612    8.969732483347
 H    0.895089981571    1.313723844352   10.143517391129
