20

 H   -0.895090000000    1.313720000000   -6.578408664880
 H   -0.000000000000    2.317560000000   -5.404618664880
 H    0.895090000000    1.313720000000   -6.578408664880
 C   -0.000000000000    1.362230000000   -5.945168664880
 S    0.000000000000    0.000000000000   -4.725218664880
 C    0.000000000000   -1.362230000000   -5.945168664880
 H    0.895090000000   -1.313720000000   -6.578408664880
 H    0.000000000000   -2.317560000000   -5.404618664880
 H   -0.895090000000   -1.313720000000   -6.578408664880
RB   -2.918480000000   -0.000000000000   -1.330778664880
RB    2.918480000000    0.000000000000   -1.330778664880
 S    0.000000000000    0.000000000000    8.369221335120
 C    0.000000000000   -1.362230791191    9.589175471156
 H    0.895089981571   -1.313723844352   10.222412552430
 H    0.000000000000   -2.317566084612    9.048627644647
 H   -0.895089981571   -1.313723844352   10.222412552430
 C   -0.000000000000    1.362230791191    9.589175471156
 H   -0.895089981571    1.313723844352   10.222412552430
 H   -0.000000000000    2.317566084612    9.048627644647
 H    0.895089981571    1.313723844352   10.222412552430
