14

 P   -0.061875324156    0.001035595343   -0.394515268071
 O   -0.648875324156    1.051035595343    0.560484731929
 O   -0.327875324156    0.049035595343   -1.906515268071
 O    1.601124675844   -0.172964404657   -0.107515268071
 O   -0.376875324156   -1.556964404657    0.197484731929
 C    2.338124675844    0.992035595343   -0.484515268071
 H    2.007124675844    1.875035595343    0.091484731929
 H    2.223124675844    1.203035595343   -1.562515268071
 H    3.398124675844    0.790035595343   -0.264515268071
 C   -1.767875324156   -1.879964404657    0.147484731929
 H   -2.145875324156   -1.852964404657   -0.890515268071
 H   -2.360875324156   -1.180964404657    0.763484731929
 H   -1.877875324156   -2.899964404657    0.547484731929
NA   -0.441008414855    0.990855508570    1.638988188193
