14

 P   -0.067746492069    0.002735372357   -0.424977427285
 O   -0.654746492069    1.052735372357    0.530022572715
 O   -0.333746492069    0.050735372357   -1.936977427285
 O    1.595253507931   -0.171264627643   -0.137977427285
 O   -0.382746492069   -1.555264627643    0.167022572715
 C    2.332253507931    0.993735372357   -0.514977427285
 H    2.001253507931    1.876735372357    0.061022572715
 H    2.217253507931    1.204735372357   -1.592977427285
 H    3.392253507931    0.791735372357   -0.294977427285
 C   -1.773746492069   -1.878264627643    0.117022572715
 H   -2.151746492069   -1.851264627643   -0.920977427285
 H   -2.366746492069   -1.179264627643    0.733022572715
 H   -1.883746492069   -2.898264627643    0.517022572715
NA   -0.409085599259    0.981613451626    1.804617566482
