14

 P   -0.073617659982    0.004435149372   -0.455439586499
 O   -0.660617659982    1.054435149372    0.499560413501
 O   -0.339617659982    0.052435149372   -1.967439586499
 O    1.589382340018   -0.169564850628   -0.168439586499
 O   -0.388617659982   -1.553564850628    0.136560413501
 C    2.326382340018    0.995435149372   -0.545439586499
 H    1.995382340018    1.878435149372    0.030560413501
 H    2.211382340018    1.206435149372   -1.623439586499
 H    3.386382340018    0.793435149372   -0.325439586499
 C   -1.779617659982   -1.876564850628    0.086560413501
 H   -2.157617659982   -1.849564850628   -0.951439586499
 H   -2.372617659982   -1.177564850628    0.702560413501
 H   -1.889617659982   -2.896564850628    0.486560413501
NA   -0.377162783662    0.972371394682    1.970246944770
