14

 P   -0.076553243938    0.005285037879   -0.470670666106
 O   -0.663553243938    1.055285037879    0.484329333894
 O   -0.342553243938    0.053285037879   -1.982670666106
 O    1.586446756062   -0.168714962121   -0.183670666106
 O   -0.391553243938   -1.552714962121    0.121329333894
 C    2.323446756062    0.996285037879   -0.560670666106
 H    1.992446756062    1.879285037879    0.015329333894
 H    2.208446756062    1.207285037879   -1.638670666106
 H    3.383446756062    0.794285037879   -0.340670666106
 C   -1.782553243938   -1.875714962121    0.071329333894
 H   -2.160553243938   -1.848714962121   -0.966670666106
 H   -2.375553243938   -1.176714962121    0.687329333894
 H   -1.892553243938   -2.895714962121    0.471329333894
NA   -0.361201375864    0.967750366209    2.053061633914
