14

 P   -0.082424411851    0.006984814893   -0.501132825320
 O   -0.669424411851    1.056984814893    0.453867174680
 O   -0.348424411851    0.054984814893   -2.013132825320
 O    1.580575588149   -0.167015185107   -0.214132825320
 O   -0.397424411851   -1.551015185107    0.090867174680
 C    2.317575588149    0.997984814893   -0.591132825320
 H    1.986575588149    1.880984814893   -0.015132825320
 H    2.202575588149    1.208984814893   -1.669132825320
 H    3.377575588149    0.795984814893   -0.371132825320
 C   -1.788424411851   -1.874015185107    0.040867174680
 H   -2.166424411851   -1.847015185107   -0.997132825320
 H   -2.381424411851   -1.175015185107    0.656867174680
 H   -1.898424411851   -2.894015185107    0.440867174680
NA   -0.329278560268    0.958508309265    2.218691012203
