14

 P   -0.100037915590    0.012084145936   -0.592519302963
 O   -0.687037915590    1.062084145936    0.362480697037
 O   -0.366037915590    0.060084145936   -2.104519302963
 O    1.562962084410   -0.161915854064   -0.305519302963
 O   -0.415037915590   -1.545915854064   -0.000519302963
 C    2.299962084410    1.003084145936   -0.682519302963
 H    1.968962084410    1.886084145936   -0.106519302963
 H    2.184962084410    1.214084145936   -1.760519302963
 H    3.359962084410    0.801084145936   -0.462519302963
 C   -1.806037915590   -1.868915854064   -0.050519302963
 H   -2.184037915590   -1.841915854064   -1.088519302963
 H   -2.399037915590   -1.169915854064    0.565480697037
 H   -1.916037915590   -2.888915854064    0.349480697037
NA   -0.233510113479    0.930782138432    2.715579147068
