14

 P   -0.102973499547    0.012934034443   -0.607750382570
 O   -0.689973499547    1.062934034443    0.347249617430
 O   -0.368973499547    0.060934034443   -2.119750382570
 O    1.560026500453   -0.161065965557   -0.320750382570
 O   -0.417973499547   -1.545065965557   -0.015750382570
 C    2.297026500453    1.003934034443   -0.697750382570
 H    1.966026500453    1.886934034443   -0.121750382570
 H    2.182026500453    1.214934034443   -1.775750382570
 H    3.357026500453    0.801934034443   -0.477750382570
 C   -1.808973499547   -1.868065965557   -0.065750382570
 H   -2.186973499547   -1.841065965557   -1.103750382570
 H   -2.401973499547   -1.169065965557    0.550249617430
 H   -1.918973499547   -2.888065965557    0.334249617430
NA   -0.217548705681    0.926161109960    2.798393836212
