14

 P   -0.105909083503    0.013783922950   -0.622981462177
 O   -0.692909083503    1.063783922950    0.332018537823
 O   -0.371909083503    0.061783922950   -2.134981462177
 O    1.557090916497   -0.160216077050   -0.335981462177
 O   -0.420909083503   -1.544216077050   -0.030981462177
 C    2.294090916497    1.004783922950   -0.712981462177
 H    1.963090916497    1.887783922950   -0.136981462177
 H    2.179090916497    1.215783922950   -1.790981462177
 H    3.354090916497    0.802783922950   -0.492981462177
 C   -1.811909083503   -1.867216077050   -0.080981462177
 H   -2.189909083503   -1.840216077050   -1.118981462177
 H   -2.404909083503   -1.168216077050    0.535018537823
 H   -1.921909083503   -2.887216077050    0.319018537823
NA   -0.201587297883    0.921540081487    2.881208525357
