14

 P   -0.108844667460    0.014633811457   -0.638212541784
 O   -0.695844667460    1.064633811457    0.316787458216
 O   -0.374844667460    0.062633811457   -2.150212541784
 O    1.554155332540   -0.159366188543   -0.351212541784
 O   -0.423844667460   -1.543366188543   -0.046212541784
 C    2.291155332540    1.005633811457   -0.728212541784
 H    1.960155332540    1.888633811457   -0.152212541784
 H    2.176155332540    1.216633811457   -1.806212541784
 H    3.351155332540    0.803633811457   -0.508212541784
 C   -1.814844667460   -1.866366188543   -0.096212541784
 H   -2.192844667460   -1.839366188543   -1.134212541784
 H   -2.407844667460   -1.167366188543    0.519787458216
 H   -1.924844667460   -2.886366188543    0.303787458216
NA   -0.185625890085    0.916919053015    2.964023214501
