14

 P   -0.111780251416    0.015483699965   -0.653443621391
 O   -0.698780251416    1.065483699965    0.301556378609
 O   -0.377780251416    0.063483699965   -2.165443621391
 O    1.551219748584   -0.158516300035   -0.366443621391
 O   -0.426780251416   -1.542516300035   -0.061443621391
 C    2.288219748584    1.006483699965   -0.743443621391
 H    1.957219748584    1.889483699965   -0.167443621391
 H    2.173219748584    1.217483699965   -1.821443621391
 H    3.348219748584    0.804483699965   -0.523443621391
 C   -1.817780251416   -1.865516300035   -0.111443621391
 H   -2.195780251416   -1.838516300035   -1.149443621391
 H   -2.410780251416   -1.166516300035    0.504556378609
 H   -1.927780251416   -2.885516300035    0.288556378609
NA   -0.169664482287    0.912298024543    3.046837903645
