14

 P   -0.114715835373    0.016333588472   -0.668674700998
 O   -0.701715835373    1.066333588472    0.286325299002
 O   -0.380715835373    0.064333588472   -2.180674700998
 O    1.548284164627   -0.157666411528   -0.381674700998
 O   -0.429715835373   -1.541666411528   -0.076674700998
 C    2.285284164627    1.007333588472   -0.758674700998
 H    1.954284164627    1.890333588472   -0.182674700998
 H    2.170284164627    1.218333588472   -1.836674700998
 H    3.345284164627    0.805333588472   -0.538674700998
 C   -1.820715835373   -1.864666411528   -0.126674700998
 H   -2.198715835373   -1.837666411528   -1.164674700998
 H   -2.413715835373   -1.165666411528    0.489325299002
 H   -1.930715835373   -2.884666411528    0.273325299002
NA   -0.153703074489    0.907676996071    3.129652592789
