14

 P   -0.117651419329    0.017183476979   -0.683905780605
 O   -0.704651419329    1.067183476979    0.271094219395
 O   -0.383651419329    0.065183476979   -2.195905780605
 O    1.545348580671   -0.156816523021   -0.396905780605
 O   -0.432651419329   -1.540816523021   -0.091905780605
 C    2.282348580671    1.008183476979   -0.773905780605
 H    1.951348580671    1.891183476979   -0.197905780605
 H    2.167348580671    1.219183476979   -1.851905780605
 H    3.342348580671    0.806183476979   -0.553905780605
 C   -1.823651419329   -1.863816523021   -0.141905780605
 H   -2.201651419329   -1.836816523021   -1.179905780605
 H   -2.416651419329   -1.164816523021    0.474094219395
 H   -1.933651419329   -2.883816523021    0.258094219395
NA   -0.137741666690    0.903055967599    3.212467281934
