14

 P   -0.123522587242    0.018883253993   -0.714367939819
 O   -0.710522587242    1.068883253993    0.240632060181
 O   -0.389522587242    0.066883253993   -2.226367939819
 O    1.539477412758   -0.155116746007   -0.427367939819
 O   -0.438522587242   -1.539116746007   -0.122367939819
 C    2.276477412758    1.009883253993   -0.804367939819
 H    1.945477412758    1.892883253993   -0.228367939819
 H    2.161477412758    1.220883253993   -1.882367939819
 H    3.336477412758    0.807883253993   -0.584367939819
 C   -1.829522587242   -1.862116746007   -0.172367939819
 H   -2.207522587242   -1.835116746007   -1.210367939819
 H   -2.422522587242   -1.163116746007    0.443632060181
 H   -1.939522587242   -2.882116746007    0.227632060181
NA   -0.105818851094    0.893813910654    3.378096660222
