14

 P   -0.129393755155    0.020583031007   -0.744830099033
 O   -0.716393755155    1.070583031007    0.210169900967
 O   -0.395393755155    0.068583031007   -2.256830099033
 O    1.533606244845   -0.153416968993   -0.457830099033
 O   -0.444393755155   -1.537416968993   -0.152830099033
 C    2.270606244845    1.011583031007   -0.834830099033
 H    1.939606244845    1.894583031007   -0.258830099033
 H    2.155606244845    1.222583031007   -1.912830099033
 H    3.330606244845    0.809583031007   -0.614830099033
 C   -1.835393755155   -1.860416968993   -0.202830099033
 H   -2.213393755155   -1.833416968993   -1.240830099033
 H   -2.428393755155   -1.161416968993    0.413169900967
 H   -1.945393755155   -2.880416968993    0.197169900967
NA   -0.073896035498    0.884571853710    3.543726038511
