14

 P   -0.138200507025    0.023132696529   -0.790523337854
 O   -0.725200507025    1.073132696529    0.164476662146
 O   -0.404200507025    0.071132696529   -2.302523337854
 O    1.524799492975   -0.150867303471   -0.503523337854
 O   -0.453200507025   -1.534867303471   -0.198523337854
 C    2.261799492975    1.014132696529   -0.880523337854
 H    1.930799492975    1.897132696529   -0.304523337854
 H    2.146799492975    1.225132696529   -1.958523337854
 H    3.321799492975    0.812132696529   -0.660523337854
 C   -1.844200507025   -1.857867303471   -0.248523337854
 H   -2.222200507025   -1.830867303471   -1.286523337854
 H   -2.437200507025   -1.158867303471    0.367476662146
 H   -1.954200507025   -2.877867303471    0.151476662146
NA   -0.026011812104    0.870708768293    3.792170105943
