14

 P   -0.155814010764    0.028232027572   -0.881909815497
 O   -0.742814010764    1.078232027572    0.073090184503
 O   -0.421814010764    0.076232027572   -2.393909815497
 O    1.507185989236   -0.145767972428   -0.594909815497
 O   -0.470814010764   -1.529767972428   -0.289909815497
 C    2.244185989236    1.019232027572   -0.971909815497
 H    1.913185989236    1.902232027572   -0.395909815497
 H    2.129185989236    1.230232027572   -2.049909815497
 H    3.304185989236    0.817232027572   -0.751909815497
 C   -1.861814010764   -1.852767972428   -0.339909815497
 H   -2.239814010764   -1.825767972428   -1.377909815497
 H   -2.454814010764   -1.153767972428    0.276090184503
 H   -1.971814010764   -2.872767972428    0.060090184503
NA    0.069756634685    0.842982597460    4.289058240809
