14

 P   -0.161685178677    0.029931804586   -0.912371974711
 O   -0.748685178677    1.079931804586    0.042628025289
 O   -0.427685178677    0.077931804586   -2.424371974711
 O    1.501314821323   -0.144068195414   -0.625371974711
 O   -0.476685178677   -1.528068195414   -0.320371974711
 C    2.238314821323    1.020931804586   -1.002371974711
 H    1.907314821323    1.903931804586   -0.426371974711
 H    2.123314821323    1.231931804586   -2.080371974711
 H    3.298314821323    0.818931804586   -0.782371974711
 C   -1.867685178677   -1.851068195414   -0.370371974711
 H   -2.245685178677   -1.824068195414   -1.408371974711
 H   -2.460685178677   -1.152068195414    0.245628025289
 H   -1.977685178677   -2.871068195414    0.029628025289
NA    0.101679450281    0.833740540516    4.454687619097
