14

 P   -0.173427514503    0.033331358615   -0.973296293139
 O   -0.760427514503    1.083331358615   -0.018296293139
 O   -0.439427514503    0.081331358615   -2.485296293139
 O    1.489572485497   -0.140668641385   -0.686296293139
 O   -0.488427514503   -1.524668641385   -0.381296293139
 C    2.226572485497    1.024331358615   -1.063296293139
 H    1.895572485497    1.907331358615   -0.487296293139
 H    2.111572485497    1.235331358615   -2.141296293139
 H    3.286572485497    0.822331358615   -0.843296293139
 C   -1.879427514503   -1.847668641385   -0.431296293139
 H   -2.257427514503   -1.820668641385   -1.469296293139
 H   -2.472427514503   -1.148668641385    0.184703706861
 H   -1.989427514503   -2.867668641385   -0.031296293139
NA    0.165525081474    0.815256426627    4.785946375674
