14

 P   -0.188105434285    0.037580801150   -1.049451691174
 O   -0.775105434285    1.087580801150   -0.094451691174
 O   -0.454105434285    0.085580801150   -2.561451691174
 O    1.474894565715   -0.136419198850   -0.762451691174
 O   -0.503105434285   -1.520419198850   -0.457451691174
 C    2.211894565715    1.028580801150   -1.139451691174
 H    1.880894565715    1.911580801150   -0.563451691174
 H    2.096894565715    1.239580801150   -2.217451691174
 H    3.271894565715    0.826580801150   -0.919451691174
 C   -1.894105434285   -1.843419198850   -0.507451691174
 H   -2.272105434285   -1.816419198850   -1.545451691174
 H   -2.487105434285   -1.144419198850    0.108548308826
 H   -2.004105434285   -2.863419198850   -0.107451691174
NA    0.245332120465    0.792151284266    5.200019821395
