14

 P   -0.196912186155    0.040130466672   -1.095144929995
 O   -0.783912186155    1.090130466672   -0.140144929995
 O   -0.462912186155    0.088130466672   -2.607144929995
 O    1.466087813845   -0.133869533328   -0.808144929995
 O   -0.511912186155   -1.517869533328   -0.503144929995
 C    2.203087813845    1.031130466672   -1.185144929995
 H    1.872087813845    1.914130466672   -0.609144929995
 H    2.088087813845    1.242130466672   -2.263144929995
 H    3.263087813845    0.829130466672   -0.965144929995
 C   -1.902912186155   -1.840869533328   -0.553144929995
 H   -2.280912186155   -1.813869533328   -1.591144929995
 H   -2.495912186155   -1.141869533328    0.062855070005
 H   -2.012912186155   -2.860869533328   -0.153144929995
NA    0.293216343859    0.778288198849    5.448463888828
