14

 P   -0.199847770111    0.040980355179   -1.110376009602
 O   -0.786847770111    1.090980355179   -0.155376009602
 O   -0.465847770111    0.088980355179   -2.622376009602
 O    1.463152229889   -0.133019644821   -0.823376009602
 O   -0.514847770111   -1.517019644821   -0.518376009602
 C    2.200152229889    1.031980355179   -1.200376009602
 H    1.869152229889    1.914980355179   -0.624376009602
 H    2.085152229889    1.242980355179   -2.278376009602
 H    3.260152229889    0.829980355179   -0.980376009602
 C   -1.905847770111   -1.840019644821   -0.568376009602
 H   -2.283847770111   -1.813019644821   -1.606376009602
 H   -2.498847770111   -1.141019644821    0.047623990398
 H   -2.015847770111   -2.860019644821   -0.168376009602
NA    0.309177751657    0.773667170377    5.531278577972
