14

 P   -0.205718938024    0.042680132193   -1.140838168816
 O   -0.792718938024    1.092680132193   -0.185838168816
 O   -0.471718938024    0.090680132193   -2.652838168816
 O    1.457281061976   -0.131319867807   -0.853838168816
 O   -0.520718938024   -1.515319867807   -0.548838168816
 C    2.194281061976    1.033680132193   -1.230838168816
 H    1.863281061976    1.916680132193   -0.654838168816
 H    2.079281061976    1.244680132193   -2.308838168816
 H    3.254281061976    0.831680132193   -1.010838168816
 C   -1.911718938024   -1.838319867807   -0.598838168816
 H   -2.289718938024   -1.811319867807   -1.636838168816
 H   -2.504718938024   -1.139319867807    0.017161831184
 H   -2.021718938024   -2.858319867807   -0.198838168816
NA    0.341100567253    0.764425113433    5.696907956261
