14

 P   -0.208654521980    0.043530020700   -1.156069248424
 O   -0.795654521980    1.093530020700   -0.201069248424
 O   -0.474654521980    0.091530020700   -2.668069248424
 O    1.454345478020   -0.130469979300   -0.869069248424
 O   -0.523654521980   -1.514469979300   -0.564069248424
 C    2.191345478020    1.034530020700   -1.246069248424
 H    1.860345478020    1.917530020700   -0.670069248424
 H    2.076345478020    1.245530020700   -2.324069248424
 H    3.251345478020    0.832530020700   -1.026069248424
 C   -1.914654521980   -1.837469979300   -0.614069248424
 H   -2.292654521980   -1.810469979300   -1.652069248424
 H   -2.507654521980   -1.138469979300    0.001930751576
 H   -2.024654521980   -2.857469979300   -0.214069248424
NA    0.357061975052    0.759804084961    5.779722645405
