14

 P   -0.211590105937    0.044379909208   -1.171300328031
 O   -0.798590105937    1.094379909208   -0.216300328031
 O   -0.477590105937    0.092379909208   -2.683300328031
 O    1.451409894063   -0.129620090792   -0.884300328031
 O   -0.526590105937   -1.513620090792   -0.579300328031
 C    2.188409894063    1.035379909208   -1.261300328031
 H    1.857409894063    1.918379909208   -0.685300328031
 H    2.073409894063    1.246379909208   -2.339300328031
 H    3.248409894063    0.833379909208   -1.041300328031
 C   -1.917590105937   -1.836620090792   -0.629300328031
 H   -2.295590105937   -1.809620090792   -1.667300328031
 H   -2.510590105937   -1.137620090792   -0.013300328031
 H   -2.027590105937   -2.856620090792   -0.229300328031
NA    0.373023382850    0.755183056488    5.862537334549
