14

 P   -0.214525689893    0.045229797715   -1.186531407638
 O   -0.801525689893    1.095229797715   -0.231531407638
 O   -0.480525689893    0.093229797715   -2.698531407638
 O    1.448474310107   -0.128770202285   -0.899531407638
 O   -0.529525689893   -1.512770202285   -0.594531407638
 C    2.185474310107    1.036229797715   -1.276531407638
 H    1.854474310107    1.919229797715   -0.700531407638
 H    2.070474310107    1.247229797715   -2.354531407638
 H    3.245474310107    0.834229797715   -1.056531407638
 C   -1.920525689893   -1.835770202285   -0.644531407638
 H   -2.298525689893   -1.808770202285   -1.682531407638
 H   -2.513525689893   -1.136770202285   -0.028531407638
 H   -2.030525689893   -2.855770202285   -0.244531407638
NA    0.388984790648    0.750562028016    5.945352023693
