14

 P   -0.226268025719    0.048629351743   -1.247455726066
 O   -0.813268025719    1.098629351743   -0.292455726066
 O   -0.492268025719    0.096629351743   -2.759455726066
 O    1.436731974281   -0.125370648257   -0.960455726066
 O   -0.541268025719   -1.509370648257   -0.655455726066
 C    2.173731974281    1.039629351743   -1.337455726066
 H    1.842731974281    1.922629351743   -0.761455726066
 H    2.058731974281    1.250629351743   -2.415455726066
 H    3.233731974281    0.837629351743   -1.117455726066
 C   -1.932268025719   -1.832370648257   -0.705455726066
 H   -2.310268025719   -1.805370648257   -1.743455726066
 H   -2.525268025719   -1.133370648257   -0.089455726066
 H   -2.042268025719   -2.852370648257   -0.305455726066
NA    0.452830421840    0.732077914127    6.276610780270
