14

 P   -0.238010361545    0.052028905772   -1.308380044494
 O   -0.825010361545    1.102028905772   -0.353380044494
 O   -0.504010361545    0.100028905772   -2.820380044494
 O    1.424989638455   -0.121971094228   -1.021380044494
 O   -0.553010361545   -1.505971094228   -0.716380044494
 C    2.161989638455    1.043028905772   -1.398380044494
 H    1.830989638455    1.926028905772   -0.822380044494
 H    2.046989638455    1.254028905772   -2.476380044494
 H    3.221989638455    0.841028905772   -1.178380044494
 C   -1.944010361545   -1.828971094228   -0.766380044494
 H   -2.322010361545   -1.801971094228   -1.804380044494
 H   -2.537010361545   -1.129971094228   -0.150380044494
 H   -2.054010361545   -2.848971094228   -0.366380044494
NA    0.516676053033    0.713593800239    6.607869536847
