14

 P   -0.246817113415    0.054578571293   -1.354073283315
 O   -0.833817113415    1.104578571293   -0.399073283315
 O   -0.512817113415    0.102578571293   -2.866073283315
 O    1.416182886585   -0.119421428707   -1.067073283315
 O   -0.561817113415   -1.503421428707   -0.762073283315
 C    2.153182886585    1.045578571293   -1.444073283315
 H    1.822182886585    1.928578571293   -0.868073283315
 H    2.038182886585    1.256578571293   -2.522073283315
 H    3.213182886585    0.843578571293   -1.224073283315
 C   -1.952817113415   -1.826421428707   -0.812073283315
 H   -2.330817113415   -1.799421428707   -1.850073283315
 H   -2.545817113415   -1.127421428707   -0.196073283315
 H   -2.062817113415   -2.846421428707   -0.412073283315
NA    0.564560276427    0.699730714822    6.856313604280
