14

 P   -0.258559449241    0.057978125322   -1.414997601743
 O   -0.845559449241    1.107978125322   -0.459997601743
 O   -0.524559449241    0.105978125322   -2.926997601743
 O    1.404440550759   -0.116021874678   -1.127997601743
 O   -0.573559449241   -1.500021874678   -0.822997601743
 C    2.141440550759    1.048978125322   -1.504997601743
 H    1.810440550759    1.931978125322   -0.928997601743
 H    2.026440550759    1.259978125322   -2.582997601743
 H    3.201440550759    0.846978125322   -1.284997601743
 C   -1.964559449241   -1.823021874678   -0.872997601743
 H   -2.342559449241   -1.796021874678   -1.910997601743
 H   -2.557559449241   -1.124021874678   -0.256997601743
 H   -2.074559449241   -2.843021874678   -0.472997601743
NA    0.628405907620    0.681246600933    7.187572360857
