14

 P   -0.270301785067    0.061377679350   -1.475921920172
 O   -0.857301785067    1.111377679350   -0.520921920172
 O   -0.536301785067    0.109377679350   -2.987921920172
 O    1.392698214933   -0.112622320650   -1.188921920172
 O   -0.585301785067   -1.496622320650   -0.883921920172
 C    2.129698214933    1.052377679350   -1.565921920172
 H    1.798698214933    1.935377679350   -0.989921920172
 H    2.014698214933    1.263377679350   -2.643921920172
 H    3.189698214933    0.850377679350   -1.345921920172
 C   -1.976301785067   -1.819622320650   -0.933921920172
 H   -2.354301785067   -1.792622320650   -1.971921920172
 H   -2.569301785067   -1.120622320650   -0.317921920172
 H   -2.086301785067   -2.839622320650   -0.533921920172
NA    0.692251538812    0.662762487044    7.518831117434
