14

 P   -0.273237369023    0.062227567858   -1.491152999779
 O   -0.860237369023    1.112227567858   -0.536152999779
 O   -0.539237369023    0.110227567858   -3.003152999779
 O    1.389762630977   -0.111772432142   -1.204152999779
 O   -0.588237369023   -1.495772432142   -0.899152999779
 C    2.126762630977    1.053227567858   -1.581152999779
 H    1.795762630977    1.936227567858   -1.005152999779
 H    2.011762630977    1.264227567858   -2.659152999779
 H    3.186762630977    0.851227567858   -1.361152999779
 C   -1.979237369023   -1.818772432142   -0.949152999779
 H   -2.357237369023   -1.791772432142   -1.987152999779
 H   -2.572237369023   -1.119772432142   -0.333152999779
 H   -2.089237369023   -2.838772432142   -0.549152999779
NA    0.708212946610    0.658141458572    7.601645806578
