14

 P   -0.296722040675    0.069026675915   -1.613001636635
 O   -0.883722040675    1.119026675915   -0.658001636635
 O   -0.562722040675    0.117026675915   -3.125001636635
 O    1.366277959325   -0.104973324085   -1.326001636635
 O   -0.611722040675   -1.488973324085   -1.021001636635
 C    2.103277959325    1.060026675915   -1.703001636635
 H    1.772277959325    1.943026675915   -1.127001636635
 H    1.988277959325    1.271026675915   -2.781001636635
 H    3.163277959325    0.858026675915   -1.483001636635
 C   -2.002722040675   -1.811973324085   -1.071001636635
 H   -2.380722040675   -1.784973324085   -2.109001636635
 H   -2.595722040675   -1.112973324085   -0.455001636635
 H   -2.112722040675   -2.831973324085   -0.671001636635
NA    0.835904208995    0.621173230795    8.264163319732
