14

 P   -0.299657624632    0.069876564422   -1.628232716242
 O   -0.886657624632    1.119876564422   -0.673232716242
 O   -0.565657624632    0.117876564422   -3.140232716242
 O    1.363342375368   -0.104123435578   -1.341232716242
 O   -0.614657624632   -1.488123435578   -1.036232716242
 C    2.100342375368    1.060876564422   -1.718232716242
 H    1.769342375368    1.943876564422   -1.142232716242
 H    1.985342375368    1.271876564422   -2.796232716242
 H    3.160342375368    0.858876564422   -1.498232716242
 C   -2.005657624632   -1.811123435578   -1.086232716242
 H   -2.383657624632   -1.784123435578   -2.124232716242
 H   -2.598657624632   -1.112123435578   -0.470232716242
 H   -2.115657624632   -2.831123435578   -0.686232716242
NA    0.851865616794    0.616552202322    8.346978008876
