14

 P   -0.308464376501    0.072426229943   -1.673925955063
 O   -0.895464376501    1.122426229943   -0.718925955063
 O   -0.574464376501    0.120426229943   -3.185925955063
 O    1.354535623499   -0.101573770057   -1.386925955063
 O   -0.623464376501   -1.485573770057   -1.081925955063
 C    2.091535623499    1.063426229943   -1.763925955063
 H    1.760535623499    1.946426229943   -1.187925955063
 H    1.976535623499    1.274426229943   -2.841925955063
 H    3.151535623499    0.861426229943   -1.543925955063
 C   -2.014464376501   -1.808573770057   -1.131925955063
 H   -2.392464376501   -1.781573770057   -2.169925955063
 H   -2.607464376501   -1.109573770057   -0.515925955063
 H   -2.124464376501   -2.828573770057   -0.731925955063
NA    0.899749840188    0.602689116906    8.595422076309
