14

 P   -0.311399960458    0.073276118450   -1.689157034670
 O   -0.898399960458    1.123276118450   -0.734157034670
 O   -0.577399960458    0.121276118450   -3.201157034670
 O    1.351600039542   -0.100723881550   -1.402157034670
 O   -0.626399960458   -1.484723881550   -1.097157034670
 C    2.088600039542    1.064276118450   -1.779157034670
 H    1.757600039542    1.947276118450   -1.203157034670
 H    1.973600039542    1.275276118450   -2.857157034670
 H    3.148600039542    0.862276118450   -1.559157034670
 C   -2.017399960458   -1.807723881550   -1.147157034670
 H   -2.395399960458   -1.780723881550   -2.185157034670
 H   -2.610399960458   -1.108723881550   -0.531157034670
 H   -2.127399960458   -2.827723881550   -0.747157034670
NA    0.915711247986    0.598068088434    8.678236765453
