14

 P   -0.314335544414    0.074126006958   -1.704388114277
 O   -0.901335544414    1.124126006958   -0.749388114277
 O   -0.580335544414    0.122126006958   -3.216388114277
 O    1.348664455586   -0.099873993042   -1.417388114277
 O   -0.629335544414   -1.483873993042   -1.112388114277
 C    2.085664455586    1.065126006958   -1.794388114277
 H    1.754664455586    1.948126006958   -1.218388114277
 H    1.970664455586    1.276126006958   -2.872388114277
 H    3.145664455586    0.863126006958   -1.574388114277
 C   -2.020335544414   -1.806873993042   -1.162388114277
 H   -2.398335544414   -1.779873993042   -2.200388114277
 H   -2.613335544414   -1.107873993042   -0.546388114277
 H   -2.130335544414   -2.826873993042   -0.762388114277
NA    0.931672655784    0.593447059962    8.761051454598
