14

 P   -0.317271128371    0.074975895465   -1.719619193884
 O   -0.904271128371    1.124975895465   -0.764619193884
 O   -0.583271128371    0.122975895465   -3.231619193884
 O    1.345728871629   -0.099024104535   -1.432619193884
 O   -0.632271128371   -1.483024104535   -1.127619193884
 C    2.082728871629    1.065975895465   -1.809619193884
 H    1.751728871629    1.948975895465   -1.233619193884
 H    1.967728871629    1.276975895465   -2.887619193884
 H    3.142728871629    0.863975895465   -1.589619193884
 C   -2.023271128371   -1.806024104535   -1.177619193884
 H   -2.401271128371   -1.779024104535   -2.215619193884
 H   -2.616271128371   -1.107024104535   -0.561619193884
 H   -2.133271128371   -2.826024104535   -0.777619193884
NA    0.947634063582    0.588826031489    8.843866143742
