17

 N   -2.415112050245   -1.315473235667    0.223090426021
 C   -1.204923983401   -0.660267031991    0.227052049989
 N    0.028488430902   -1.258944726453    0.239090334894
 C    0.998911630958   -0.368768584842    0.227217877921
 N    0.795834793545    0.992869548672    0.220382717579
 H    1.599661918796    1.612830088427    0.138394695157
 N    2.324366385195   -0.787443306522    0.148870574686
 H    2.978902590527   -0.255640082122    0.716511351416
 H    2.403171472586   -1.788143450457    0.310453912675
 C   -0.463438948772    1.678903252203    0.233336504256
 O   -0.491019317877    2.907076336980    0.229248375828
 C   -1.536224074748    0.705209862929    0.239537702196
 N   -2.907297376517    0.891540908242    0.239462517480
 C   -3.400820871028   -0.347062105803    0.229132417815
 H   -4.458318784296   -0.601208727635    0.226185773389
 H   -2.540209046776   -2.322056320899    0.214430874990
 K    2.709892339855   -0.886088804450   -0.876623844617
