17

 N   -2.429485718407   -1.311795408958    0.261324211081
 C   -1.219297651563   -0.656589205282    0.265285835049
 N    0.014114762740   -1.255266899744    0.277324119954
 C    0.984537962796   -0.365090758133    0.265451662981
 N    0.781461125383    0.996547375381    0.258616502639
 H    1.585288250634    1.616507915136    0.176628480217
 N    2.309992717033   -0.783765479813    0.187104359746
 H    2.964528922365   -0.251962255413    0.754745136476
 H    2.388797804424   -1.784465623748    0.348687697735
 C   -0.477812616934    1.682581078912    0.271570289316
 O   -0.505392986039    2.910754163689    0.267482160888
 C   -1.550597742910    0.708887689638    0.277771487256
 N   -2.921671044679    0.895218734951    0.277696302540
 C   -3.415194539190   -0.343384279094    0.267366202875
 H   -4.472692452458   -0.597530900926    0.264419558449
 H   -2.554582714938   -2.318378494190    0.252664660050
 K    2.765614299812   -0.900346522819   -1.024843590339
