17

 N   -2.436672552489   -1.309956495604    0.280441103611
 C   -1.226484485645   -0.654750291928    0.284402727579
 N    0.006927928658   -1.253427986390    0.296441012484
 C    0.977351128714   -0.363251844779    0.284568555511
 N    0.774274291301    0.998386288735    0.277733395169
 H    1.578101416552    1.618346828490    0.195745372747
 N    2.302805882951   -0.781926566459    0.206221252276
 H    2.957342088283   -0.250123342059    0.773862029006
 H    2.381610970342   -1.782626710394    0.367804590265
 C   -0.484999451016    1.684419992266    0.290687181846
 O   -0.512579820121    2.912593077043    0.286599053418
 C   -1.557784576992    0.710726602992    0.296888379786
 N   -2.928857878761    0.897057648305    0.296813195070
 C   -3.422381373272   -0.341545365740    0.286483095405
 H   -4.479879286540   -0.595691987572    0.283536450979
 H   -2.561769549020   -2.316539580836    0.271781552580
 K    2.793475279791   -0.907475382004   -1.098953463201
