17

 N   -2.451046220651   -1.306278668895    0.318674888671
 C   -1.240858153807   -0.651072465219    0.322636512639
 N   -0.007445739504   -1.249750159681    0.334674797544
 C    0.962977460552   -0.359574018070    0.322802340571
 N    0.759900623139    1.002064115444    0.315967180229
 H    1.563727748390    1.622024655199    0.233979157807
 N    2.288432214789   -0.778248739750    0.244455037336
 H    2.942968420121   -0.246445515350    0.812095814066
 H    2.367237302180   -1.778948883685    0.406038375325
 C   -0.499373119178    1.688097818975    0.328920966906
 O   -0.526953488283    2.916270903752    0.324832838478
 C   -1.572158245154    0.714404429701    0.335122164846
 N   -2.943231546923    0.900735475014    0.335046980130
 C   -3.436755041434   -0.337867539031    0.324716880465
 H   -4.494252954702   -0.592014160863    0.321770236039
 H   -2.576143217182   -2.312861754127    0.310015337640
 K    2.849197239749   -0.921733100373   -1.247173208923
