17

 N   -2.501354059219   -1.293406275415    0.452493136381
 C   -1.291165992375   -0.638200071739    0.456454760349
 N   -0.057753578072   -1.236877766201    0.468493045254
 C    0.912669621984   -0.346701624590    0.456620588281
 N    0.709592784571    1.014936508924    0.449785427939
 H    1.513419909822    1.634897048679    0.367797405517
 N    2.238124376221   -0.765376346270    0.378273285046
 H    2.892660581553   -0.233573121870    0.945914061776
 H    2.316929463612   -1.766076490205    0.539856623035
 C   -0.549680957746    1.700970212455    0.462739214616
 O   -0.577261326851    2.929143297232    0.458651086188
 C   -1.622466083722    0.727276823181    0.468940412556
 N   -2.993539385491    0.913607868494    0.468865227840
 C   -3.487062880002   -0.324995145551    0.458535128175
 H   -4.544560793270   -0.579141767383    0.455588483749
 H   -2.626451055750   -2.299989360647    0.443833585350
 K    3.044224099600   -0.971635114665   -1.765942318952
