17

 N   -2.508540893301   -1.291567362061    0.471610028911
 C   -1.298352826457   -0.636361158385    0.475571652879
 N   -0.064940412154   -1.235038852847    0.487609937784
 C    0.905482787902   -0.344862711236    0.475737480811
 N    0.702405950489    1.016775422278    0.468902320469
 H    1.506233075740    1.636735962033    0.386914298047
 N    2.230937542139   -0.763537432916    0.397390177576
 H    2.885473747471   -0.231734208516    0.965030954306
 H    2.309742629530   -1.764237576851    0.558973515565
 C   -0.556867791828    1.702809125809    0.481856107146
 O   -0.584448160933    2.930982210586    0.477767978718
 C   -1.629652917804    0.729115736535    0.488057305086
 N   -3.000726219573    0.915446781848    0.487982120370
 C   -3.494249714084   -0.323156232197    0.477652020705
 H   -4.551747627352   -0.577302854029    0.474705376279
 H   -2.633637889832   -2.298150447293    0.462950477880
 K    3.072085079579   -0.978763973850   -1.840052191813
