17

 N   -2.522914561463   -1.287889535352    0.509843813970
 C   -1.312726494619   -0.632683331676    0.513805437938
 N   -0.079314080316   -1.231361026138    0.525843722843
 C    0.891109119740   -0.341184884527    0.513971265870
 N    0.688032282327    1.020453248987    0.507136105528
 H    1.491859407578    1.640413788742    0.425148083106
 N    2.216563873977   -0.759859606207    0.435623962635
 H    2.871100079309   -0.228056381807    1.003264739365
 H    2.295368961368   -1.760559750142    0.597207300624
 C   -0.571241459990    1.706486952518    0.520089892205
 O   -0.598821829095    2.934660037295    0.516001763777
 C   -1.644026585966    0.732793563244    0.526291090145
 N   -3.015099887735    0.919124608557    0.526215905429
 C   -3.508623382246   -0.319478405488    0.515885805764
 H   -4.566121295514   -0.573625027320    0.512939161338
 H   -2.648011557994   -2.294472620584    0.501184262939
 K    3.127807039537   -0.993021692219   -1.988271937536
