17

 N   -2.537288229625   -1.284211708643    0.548077599030
 C   -1.327100162781   -0.629005504967    0.552039222998
 N   -0.093687748478   -1.227683199429    0.564077507903
 C    0.876735451578   -0.337507057818    0.552205050930
 N    0.673658614165    1.024131075696    0.545369890588
 H    1.477485739416    1.644091615451    0.463381868166
 N    2.202190205815   -0.756181779498    0.473857747695
 H    2.856726411147   -0.224378555098    1.041498524425
 H    2.280995293206   -1.756881923433    0.635441085684
 C   -0.585615128152    1.710164779227    0.558323677265
 O   -0.613195497257    2.938337864004    0.554235548837
 C   -1.658400254128    0.736471389953    0.564524875205
 N   -3.029473555897    0.922802435266    0.564449690489
 C   -3.522997050408   -0.315800578779    0.554119590824
 H   -4.580494963676   -0.569947200611    0.551172946398
 H   -2.662385226156   -2.290794793875    0.539418047999
 K    3.183528999494   -1.007279410588   -2.136491683258
