17

 N   -2.551661897788   -1.280533881935    0.586311384090
 C   -1.341473830944   -0.625327678259    0.590273008058
 N   -0.108061416641   -1.224005372721    0.602311292963
 C    0.862361783415   -0.333829231110    0.590438835990
 N    0.659284946002    1.027808902404    0.583603675648
 H    1.463112071253    1.647769442159    0.501615653226
 N    2.187816537652   -0.752503952790    0.512091532755
 H    2.842352742984   -0.220700728390    1.079732309485
 H    2.266621625043   -1.753204096725    0.673674870744
 C   -0.599988796315    1.713842605935    0.596557462325
 O   -0.627569165420    2.942015690712    0.592469333897
 C   -1.672773922291    0.740149216661    0.602758660265
 N   -3.043847224060    0.926480261974    0.602683475549
 C   -3.537370718571   -0.312122752071    0.592353375884
 H   -4.594868631839   -0.566269373903    0.589406731458
 H   -2.676758894319   -2.287116967167    0.577651833059
 K    3.239250959452   -1.021537128957   -2.284711428981
