17

 N   -2.573222400031   -1.275017141872    0.643662061680
 C   -1.363034333187   -0.619810938196    0.647623685648
 N   -0.129621918884   -1.218488632658    0.659661970553
 C    0.840801281172   -0.328312491047    0.647789513580
 N    0.637724443759    1.033325642467    0.640954353238
 H    1.441551569010    1.653286182222    0.558966330816
 N    2.166256035409   -0.746987212727    0.569442210345
 H    2.820792240741   -0.215183988327    1.137082987075
 H    2.245061122800   -1.747687356662    0.731025548334
 C   -0.621549298558    1.719359345998    0.653908139915
 O   -0.649129667663    2.947532430775    0.649820011487
 C   -1.694334424534    0.745665956724    0.660109337855
 N   -3.065407726303    0.931997002037    0.660034153139
 C   -3.558931220814   -0.306606012008    0.649704053474
 H   -4.616429134082   -0.560752633840    0.646757409048
 H   -2.698319396562   -2.281600227104    0.635002510649
 K    3.322833899388   -1.042923706511   -2.507041047565
