17

 N   -2.587596068194   -1.271339315163    0.681895846740
 C   -1.377408001350   -0.616133111487    0.685857470708
 N   -0.143995587047   -1.214810805949    0.697895755613
 C    0.826427613009   -0.324634664338    0.686023298640
 N    0.623350775596    1.037003469176    0.679188138298
 H    1.427177900847    1.656964008931    0.597200115876
 N    2.151882367246   -0.743309386018    0.607675995405
 H    2.806418572578   -0.211506161618    1.175316772135
 H    2.230687454637   -1.744009529953    0.769259333394
 C   -0.635922966721    1.723037172707    0.692141924975
 O   -0.663503335826    2.951210257484    0.688053796547
 C   -1.708708092697    0.749343783433    0.698343122915
 N   -3.079781394466    0.935674828746    0.698267938199
 C   -3.573304888977   -0.302928185299    0.687937838534
 H   -4.630802802245   -0.557074807131    0.684991194108
 H   -2.712693064725   -2.277922400395    0.673236295709
 K    3.378555859346   -1.057181424880   -2.655260793287
