17

 N   -2.616343404519   -1.263983661746    0.758363416860
 C   -1.406155337675   -0.608777458070    0.762325040828
 N   -0.172742923372   -1.207455152532    0.774363325733
 C    0.797680276684   -0.317279010921    0.762490868760
 N    0.594603439271    1.044359122593    0.755655708418
 H    1.398430564522    1.664319662348    0.673667685996
 N    2.123135030921   -0.735953732601    0.684143565525
 H    2.777671236253   -0.204150508201    1.251784342255
 H    2.201940118312   -1.736653876536    0.845726903514
 C   -0.664670303046    1.730392826124    0.768609495095
 O   -0.692250672151    2.958565910901    0.764521366667
 C   -1.737455429022    0.756699436850    0.774810693035
 N   -3.108528730791    0.943030482163    0.774735508319
 C   -3.602052225302   -0.295572531882    0.764405408654
 H   -4.659550138570   -0.549719153714    0.761458764228
 H   -2.741440401050   -2.270566746978    0.749703865829
 K    3.489999779261   -1.085696861618   -2.951700284732
