17

 N   -2.630717072681   -1.260305835037    0.796597201919
 C   -1.420529005837   -0.605099631361    0.800558825887
 N   -0.187116591534   -1.203777325823    0.812597110792
 C    0.783306608522   -0.313601184212    0.800724653819
 N    0.580229771109    1.048036949302    0.793889493477
 H    1.384056896360    1.667997489057    0.711901471055
 N    2.108761362759   -0.732275905892    0.722377350584
 H    2.763297568091   -0.200472681492    1.290018127314
 H    2.187566450150   -1.732976049827    0.883960688573
 C   -0.679043971208    1.734070652833    0.806843280154
 O   -0.706624340313    2.962243737610    0.802755151726
 C   -1.751829097184    0.760377263559    0.813044478094
 N   -3.122902398953    0.946708308872    0.812969293378
 C   -3.616425893464   -0.291894705173    0.802639193713
 H   -4.673923806732   -0.546041327005    0.799692549287
 H   -2.755814069212   -2.266888920269    0.787937650888
 K    3.545721739218   -1.099954579988   -3.099920030455
