17

 N   -2.637903906762   -1.258466921683    0.815714094449
 C   -1.427715839918   -0.603260718007    0.819675718417
 N   -0.194303425615   -1.201938412469    0.831714003322
 C    0.776119774441   -0.311762270858    0.819841546349
 N    0.573042937028    1.049875862656    0.813006386007
 H    1.376870062279    1.669836402411    0.731018363585
 N    2.101574528678   -0.730436992538    0.741494243114
 H    2.756110734010   -0.198633768138    1.309135019844
 H    2.180379616069   -1.731137136473    0.903077581103
 C   -0.686230805289    1.735909566187    0.825960172684
 O   -0.713811174394    2.964082650964    0.821872044256
 C   -1.759015931265    0.762216176913    0.832161370624
 N   -3.130089233034    0.948547222226    0.832086185908
 C   -3.623612727545   -0.290055791819    0.821756086243
 H   -4.681110640813   -0.544202413651    0.818809441817
 H   -2.763000903293   -2.265050006915    0.807054543418
 K    3.573582719197   -1.107083439172   -3.174029903316
