17

 N   -2.645090740843   -1.256628008328    0.834830986979
 C   -1.434902673999   -0.601421804652    0.838792610947
 N   -0.201490259696   -1.200099499114    0.850830895852
 C    0.768932940360   -0.309923357503    0.838958438879
 N    0.565856102947    1.051714776011    0.832123278537
 H    1.369683228198    1.671675315766    0.750135256115
 N    2.094387694597   -0.728598079183    0.760611135644
 H    2.748923899929   -0.196794854783    1.328251912374
 H    2.173192781988   -1.729298223118    0.922194473633
 C   -0.693417639370    1.737748479542    0.845077065214
 O   -0.720998008475    2.965921564319    0.840988936786
 C   -1.766202765346    0.764055090268    0.851278263154
 N   -3.137276067115    0.950386135581    0.851203078438
 C   -3.630799561626   -0.288216878464    0.840872978773
 H   -4.688297474894   -0.542363500296    0.837926334347
 H   -2.770187737374   -2.263211093560    0.826171435948
 K    3.601443699176   -1.114212298357   -3.248139776178
