17

 N   -2.652277574925   -1.254789094974    0.853947879509
 C   -1.442089508081   -0.599582891298    0.857909503477
 N   -0.208677093778   -1.198260585760    0.869947788382
 C    0.761746106278   -0.308084444149    0.858075331409
 N    0.558669268865    1.053553689365    0.851240171067
 H    1.362496394116    1.673514229120    0.769252148645
 N    2.087200860515   -0.726759165829    0.779728028174
 H    2.741737065847   -0.194955941429    1.347368804904
 H    2.166005947906   -1.727459309764    0.941311366163
 C   -0.700604473452    1.739587392896    0.864193957744
 O   -0.728184842557    2.967760477673    0.860105829316
 C   -1.773389599428    0.765894003622    0.870395155684
 N   -3.144462901197    0.952225048935    0.870319970968
 C   -3.637986395708   -0.286377965110    0.859989871303
 H   -4.695484308976   -0.540524586942    0.857043226877
 H   -2.777374571456   -2.261372180206    0.845288328478
 K    3.629304679155   -1.121341157541   -3.322249649039
