17

 N   -2.666651243087   -1.251111268265    0.892181664569
 C   -1.456463176243   -0.595905064589    0.896143288537
 N   -0.223050761940   -1.194582759051    0.908181573442
 C    0.747372438116   -0.304406617440    0.896309116469
 N    0.544295600703    1.057231516074    0.889473956127
 H    1.348122725954    1.677192055829    0.807485933705
 N    2.072827192353   -0.723081339120    0.817961813234
 H    2.727363397685   -0.191278114720    1.385602589964
 H    2.151632279744   -1.723781483055    0.979545151223
 C   -0.714978141614    1.743265219605    0.902427742804
 O   -0.742558510719    2.971438304382    0.898339614376
 C   -1.787763267590    0.769571830331    0.908628940744
 N   -3.158836569359    0.955902875644    0.908553756028
 C   -3.652360063870   -0.282700138401    0.898223656363
 H   -4.709857977138   -0.536846760233    0.895277011937
 H   -2.791748239618   -2.257694353497    0.883522113538
 K    3.685026639112   -1.135598875910   -3.470469394761
