17

 N   -2.673838077168   -1.249272354911    0.911298557099
 C   -1.463650010324   -0.594066151235    0.915260181067
 N   -0.230237596021   -1.192743845697    0.927298465972
 C    0.740185604035   -0.302567704086    0.915426008999
 N    0.537108766622    1.059070429428    0.908590848657
 H    1.340935891873    1.679030969183    0.826602826235
 N    2.065640358272   -0.721242425766    0.837078705764
 H    2.720176563604   -0.189439201366    1.404719482494
 H    2.144445445663   -1.721942569701    0.998662043753
 C   -0.722164975695    1.745104132959    0.921544635334
 O   -0.749745344800    2.973277217736    0.917456506906
 C   -1.794950101671    0.771410743685    0.927745833274
 N   -3.166023403440    0.957741788998    0.927670648558
 C   -3.659546897951   -0.280861225047    0.917340548893
 H   -4.717044811219   -0.535007846879    0.914393904467
 H   -2.798935073699   -2.255855440143    0.902639006068
 K    3.712887619091   -1.142727735095   -3.544579267623
