17

 N   -2.688211745331   -1.245594528202    0.949532342159
 C   -1.478023678487   -0.590388324526    0.953493966127
 N   -0.244611264184   -1.189066018988    0.965532251032
 C    0.725811935872   -0.298889877377    0.953659794059
 N    0.522735098459    1.062748256137    0.946824633717
 H    1.326562223710    1.682708795892    0.864836611295
 N    2.051266690109   -0.717564599057    0.875312490824
 H    2.705802895441   -0.185761374657    1.442953267554
 H    2.130071777500   -1.718264742992    1.036895828813
 C   -0.736538643858    1.748781959668    0.959778420394
 O   -0.764119012963    2.976955044445    0.955690291966
 C   -1.809323769834    0.775088570394    0.965979618334
 N   -3.180397071603    0.961419615707    0.965904433618
 C   -3.673920566114   -0.277183398338    0.955574333953
 H   -4.731418479382   -0.531330020170    0.952627689527
 H   -2.813308741862   -2.252177613434    0.940872791128
 K    3.768609579049   -1.156985453464   -3.692799013345
