17

 N   -2.716959081655   -1.238238874785    1.025999912279
 C   -1.506771014811   -0.583032671109    1.029961536247
 N   -0.273358600508   -1.181710365571    1.041999821152
 C    0.697064599548   -0.291534223960    1.030127364179
 N    0.493987762135    1.070103909554    1.023292203837
 H    1.297814887386    1.690064449309    0.941304181415
 N    2.022519353785   -0.710208945640    0.951780060944
 H    2.677055559117   -0.178405721240    1.519420837674
 H    2.101324441176   -1.710909089575    1.113363398933
 C   -0.765285980182    1.756137613085    1.036245990514
 O   -0.792866349287    2.984310697862    1.032157862086
 C   -1.838071106158    0.782444223811    1.042447188454
 N   -3.209144407927    0.968775269124    1.042372003738
 C   -3.702667902438   -0.269827744921    1.032041904073
 H   -4.760165815706   -0.523974366753    1.029095259647
 H   -2.842056078186   -2.244821960017    1.017340361248
 K    3.880053498964   -1.185500890203   -3.989238504790
