17

 N   -2.745706417980   -1.230883221368    1.102467482398
 C   -1.535518351136   -0.575677017692    1.106429106366
 N   -0.302105936833   -1.174354712154    1.118467391271
 C    0.668317263223   -0.284178570543    1.106594934298
 N    0.465240425810    1.077459562971    1.099759773956
 H    1.269067551061    1.697420102726    1.017771751534
 N    1.993772017460   -0.702853292223    1.028247631063
 H    2.648308222792   -0.171050067823    1.595888407793
 H    2.072577104851   -1.703553436158    1.189830969052
 C   -0.794033316507    1.763493266502    1.112713560633
 O   -0.821613685612    2.991666351279    1.108625432205
 C   -1.866818442483    0.789799877228    1.118914758573
 N   -3.237891744252    0.976130922541    1.118839573857
 C   -3.731415238763   -0.262472091504    1.108509474192
 H   -4.788913152031   -0.516618713336    1.105562829766
 H   -2.870803414511   -2.237466306600    1.093807931367
 K    3.991497418879   -1.214016326941   -4.285677996235
