17

 N   -2.752893252062   -1.229044308013    1.121584374928
 C   -1.542705185218   -0.573838104337    1.125545998896
 N   -0.309292770915   -1.172515798799    1.137584283801
 C    0.661130429141   -0.282339657188    1.125711826828
 N    0.458053591728    1.079298476326    1.118876666486
 H    1.261880716979    1.699259016081    1.036888644064
 N    1.986585183378   -0.701014378868    1.047364523593
 H    2.641121388710   -0.169211154468    1.615005300323
 H    2.065390270769   -1.701714522803    1.208947861582
 C   -0.801220150589    1.765332179857    1.131830453163
 O   -0.828800519694    2.993505264634    1.127742324735
 C   -1.874005276565    0.791638790583    1.138031651103
 N   -3.245078578334    0.977969835896    1.137956466387
 C   -3.738602072845   -0.260633178149    1.127626366722
 H   -4.796099986113   -0.514779799981    1.124679722296
 H   -2.877990248593   -2.235627393245    1.112924823897
 K    4.019358398858   -1.221145186125   -4.359787869097
