17

 N   -2.760080086143   -1.227205394659    1.140701267458
 C   -1.549892019299   -0.571999190983    1.144662891426
 N   -0.316479604996   -1.170676885445    1.156701176331
 C    0.653943595060   -0.280500743834    1.144828719358
 N    0.450866757647    1.081137389680    1.137993559016
 H    1.254693882898    1.701097929435    1.056005536594
 N    1.979398349297   -0.699175465514    1.066481416123
 H    2.633934554629   -0.167372241114    1.634122192853
 H    2.058203436688   -1.699875609449    1.228064754112
 C   -0.808406984670    1.767171093211    1.150947345693
 O   -0.835987353775    2.995344177988    1.146859217265
 C   -1.881192110646    0.793477703937    1.157148543633
 N   -3.252265412415    0.979808749250    1.157073358917
 C   -3.745788906926   -0.258794264795    1.146743259252
 H   -4.803286820194   -0.512940886627    1.143796614826
 H   -2.885177082674   -2.233788479891    1.132041716427
 K    4.047219378836   -1.228274045310   -4.433897741958
