17

 N   -2.774453754305   -1.223527567950    1.178935052518
 C   -1.564265687461   -0.568321364274    1.182896676486
 N   -0.330853273158   -1.166999058736    1.194934961391
 C    0.639569926898   -0.276822917125    1.183062504418
 N    0.436493089485    1.084815216389    1.176227344076
 H    1.240320214736    1.704775756144    1.094239321654
 N    1.965024681135   -0.695497638805    1.104715201183
 H    2.619560886467   -0.163694414405    1.672355977913
 H    2.043829768526   -1.696197782740    1.266298539172
 C   -0.822780652832    1.770848919920    1.189181130753
 O   -0.850361021937    2.999022004697    1.185093002325
 C   -1.895565778808    0.797155530646    1.195382328693
 N   -3.266639080577    0.983486575959    1.195307143977
 C   -3.760162575088   -0.255116438086    1.184977044312
 H   -4.817660488356   -0.509263059918    1.182030399886
 H   -2.899550750836   -2.230110653182    1.170275501487
 K    4.102941338794   -1.242531763679   -4.582117487680
