17

 N   -2.796014256549   -1.218010827887    1.236285730108
 C   -1.585826189705   -0.562804624211    1.240247354076
 N   -0.352413775402   -1.161482318673    1.252285638981
 C    0.618009424654   -0.271306177062    1.240413182008
 N    0.414932587241    1.090331956452    1.233578021666
 H    1.218759712492    1.710292496207    1.151589999244
 N    1.943464178891   -0.689980898742    1.162065878773
 H    2.598000384223   -0.158177674342    1.729706655503
 H    2.022269266282   -1.690681042677    1.323649216762
 C   -0.844341155076    1.776365659983    1.246531808343
 O   -0.871921524181    3.004538744760    1.242443679915
 C   -1.917126281052    0.802672270709    1.252733006283
 N   -3.288199582821    0.989003316022    1.252657821567
 C   -3.781723077332   -0.249599698023    1.242327721902
 H   -4.839220990600   -0.503746319855    1.239381077476
 H   -2.921111253080   -2.224593913119    1.227626179077
 K    4.186524278730   -1.263918341233   -4.804447106264
