17

 N   -2.839135261036   -1.206977347761    1.350987085287
 C   -1.628947194192   -0.551771144085    1.354948709255
 N   -0.395534779889   -1.150448838547    1.366986994160
 C    0.574888420167   -0.260272696936    1.355114537187
 N    0.371811582754    1.101365436578    1.348279376845
 H    1.175638708005    1.721325976333    1.266291354423
 N    1.900343174404   -0.678947418616    1.276767233952
 H    2.554879379736   -0.147144194216    1.844408010682
 H    1.979148261795   -1.679647562551    1.438350571941
 C   -0.887462159563    1.787399140109    1.361233163522
 O   -0.915042528668    3.015572224886    1.357145035094
 C   -1.960247285539    0.813705750835    1.367434361462
 N   -3.331320587308    1.000036796148    1.367359176746
 C   -3.824844081819   -0.238566217897    1.357029077081
 H   -4.882341995087   -0.492712839729    1.354082432655
 H   -2.964232257567   -2.213560432993    1.342327534256
 K    4.353690158603   -1.306691496340   -5.249106343432
