17

 N   -2.846322095117   -1.205138434407    1.370103977817
 C   -1.636134028273   -0.549932230731    1.374065601785
 N   -0.402721613970   -1.148609925193    1.386103886690
 C    0.567701586086   -0.258433783582    1.374231429717
 N    0.364624748673    1.103204349932    1.367396269375
 H    1.168451873924    1.723164889687    1.285408246953
 N    1.893156340323   -0.677108505262    1.295884126482
 H    2.547692545655   -0.145305280862    1.863524903212
 H    1.971961427714   -1.677808649197    1.457467464471
 C   -0.894648993644    1.789238053463    1.380350056052
 O   -0.922229362749    3.017411138240    1.376261927624
 C   -1.967434119620    0.815544664189    1.386551253992
 N   -3.338507421389    1.001875709502    1.386476069276
 C   -3.832030915900   -0.236727304543    1.376145969611
 H   -4.889528829168   -0.490873926375    1.373199325185
 H   -2.971419091648   -2.211721519639    1.361444426786
 K    4.381551138582   -1.313820355525   -5.323216216293
