17

 N   -2.882256265523   -1.195943867635    1.465688440467
 C   -1.672068198679   -0.540737663959    1.469650064435
 N   -0.438655784376   -1.139415358421    1.481688349340
 C    0.531767415680   -0.249239216810    1.469815892367
 N    0.328690578267    1.112398916704    1.462980732025
 H    1.132517703518    1.732359456459    1.380992709603
 N    1.857222169917   -0.667913938490    1.391468589132
 H    2.511758375249   -0.136110714090    1.959109365862
 H    1.936027257308   -1.668614082425    1.553051927121
 C   -0.930583164050    1.798432620235    1.475934518702
 O   -0.958163533155    3.026605705012    1.471846390274
 C   -2.003368290026    0.824739230961    1.482135716642
 N   -3.374441591795    1.011070276274    1.482060531926
 C   -3.867965086306   -0.227532737771    1.471730432261
 H   -4.925462999574   -0.481679359603    1.468783787835
 H   -3.007353262054   -2.202526952867    1.457028889436
 K    4.520856038476   -1.349464651448   -5.693765580600
