17

 N   -2.903816767767   -1.190427127572    1.523039118057
 C   -1.693628700923   -0.535220923896    1.527000742025
 N   -0.460216286620   -1.133898618358    1.539039026930
 C    0.510206913436   -0.243722476747    1.527166569957
 N    0.307130076023    1.117915656767    1.520331409615
 H    1.110957201274    1.737876196522    1.438343387193
 N    1.835661667673   -0.662397198427    1.448819266722
 H    2.490197873005   -0.130593974027    2.016460043452
 H    1.914466755064   -1.663097342362    1.610402604711
 C   -0.952143666294    1.803949360298    1.533285196292
 O   -0.979724035399    3.032122445075    1.529197067864
 C   -2.024928792270    0.830255971024    1.539486394232
 N   -3.396002094039    1.016587016337    1.539411209516
 C   -3.889525588550   -0.222015997708    1.529081109851
 H   -4.947023501818   -0.476162619540    1.526134465425
 H   -3.028913764298   -2.197010212804    1.514379567026
 K    4.604438978412   -1.370851229002   -5.916095199183
