17

 N   -2.911003601848   -1.188588214218    1.542156010587
 C   -1.700815535004   -0.533382010542    1.546117634555
 N   -0.467403120701   -1.132059705004    1.558155919460
 C    0.503020079355   -0.241883563393    1.546283462487
 N    0.299943241942    1.119754570121    1.539448302145
 H    1.103770367193    1.739715109876    1.457460279723
 N    1.828474833592   -0.660558285073    1.467936159252
 H    2.483011038924   -0.128755060673    2.035576935982
 H    1.907279920983   -1.661258429008    1.629519497241
 C   -0.959330500375    1.805788273652    1.552402088822
 O   -0.986910869480    3.033961358429    1.548313960394
 C   -2.032115626351    0.832094884378    1.558603286762
 N   -3.403188928120    1.018425929691    1.558528102046
 C   -3.896712422631   -0.220177084354    1.548198002381
 H   -4.954210335899   -0.474323706186    1.545251357955
 H   -3.036100598379   -2.195171299450    1.533496459556
 K    4.632299958391   -1.377980088186   -5.990205072045
