17

 N   -2.939750938173   -1.181232560801    1.618623580707
 C   -1.729562871329   -0.526026357125    1.622585204675
 N   -0.496150457026   -1.124704051587    1.634623489580
 C    0.474272743030   -0.234527909976    1.622751032607
 N    0.271195905617    1.127110223538    1.615915872265
 H    1.075023030868    1.747070763293    1.533927849843
 N    1.799727497267   -0.653202631656    1.544403729372
 H    2.454263702599   -0.121399407256    2.112044506102
 H    1.878532584658   -1.653902775591    1.705987067361
 C   -0.988077836700    1.813143927069    1.628869658942
 O   -1.015658205805    3.041317011846    1.624781530514
 C   -2.060862962676    0.839450537795    1.635070856882
 N   -3.431936264445    1.025781583108    1.634995672166
 C   -3.925459758956   -0.212821430937    1.624665572501
 H   -4.982957672224   -0.466968052769    1.621718928075
 H   -3.064847934704   -2.187815646033    1.609964029676
 K    4.743743878306   -1.406495524925   -6.286644563490
