17

 N   -2.975685108579   -1.172037994029    1.714208043356
 C   -1.765497041735   -0.516831790353    1.718169667324
 N   -0.532084627432   -1.115509484815    1.730207952229
 C    0.438338572624   -0.225333343204    1.718335495256
 N    0.235261735211    1.136304790310    1.711500334914
 H    1.039088860462    1.756265330065    1.629512312492
 N    1.763793326861   -0.644008064884    1.639988192021
 H    2.418329532193   -0.112204840484    2.207628968751
 H    1.842598414252   -1.644708208819    1.801571530010
 C   -1.024012007106    1.822338493841    1.724454121591
 O   -1.051592376211    3.050511578618    1.720365993163
 C   -2.096797133082    0.848645104567    1.730655319531
 N   -3.467870434851    1.034976149880    1.730580134815
 C   -3.961393929362   -0.203626864165    1.720250035150
 H   -5.018891842630   -0.457773485997    1.717303390724
 H   -3.100782105110   -2.178621079261    1.705548492325
 K    4.883048778200   -1.442139820847   -6.657193927796
