17

 N   -2.982871942660   -1.170199080675    1.733324935886
 C   -1.772683875816   -0.514992876999    1.737286559854
 N   -0.539271461513   -1.113670571461    1.749324844759
 C    0.431151738543   -0.223494429850    1.737452387786
 N    0.228074901130    1.138143703664    1.730617227444
 H    1.031902026381    1.758104243419    1.648629205022
 N    1.756606492780   -0.642169151530    1.659105084551
 H    2.411142698112   -0.110365927130    2.226745861281
 H    1.835411580171   -1.642869295465    1.820688422540
 C   -1.031198841187    1.824177407195    1.743571014121
 O   -1.058779210292    3.052350491972    1.739482885693
 C   -2.103983967163    0.850484017921    1.749772212061
 N   -3.475057268932    1.036815063234    1.749697027345
 C   -3.968580763443   -0.201787950811    1.739366927680
 H   -5.026078676711   -0.455934572643    1.736420283254
 H   -3.107968939191   -2.176782165907    1.724665384855
 K    4.910909758179   -1.449268680032   -6.731303800657
