17

 N   -2.997245610822   -1.166521253966    1.771558720946
 C   -1.787057543978   -0.511315050290    1.775520344914
 N   -0.553645129675   -1.109992744752    1.787558629819
 C    0.416778070381   -0.219816603141    1.775686172846
 N    0.213701232968    1.141821530373    1.768851012504
 H    1.017528358219    1.761782070128    1.686862990082
 N    1.742232824618   -0.638491324821    1.697338869611
 H    2.396769029950   -0.106688100421    2.264979646341
 H    1.821037912009   -1.639191468756    1.858922207600
 C   -1.045572509349    1.827855233904    1.781804799181
 O   -1.073152878454    3.056028318681    1.777716670753
 C   -2.118357635325    0.854161844630    1.788005997121
 N   -3.489430937094    1.040492889943    1.787930812405
 C   -3.982954431605   -0.198110124102    1.777600712740
 H   -5.040452344873   -0.452256745934    1.774654068314
 H   -3.122342607353   -2.173104339198    1.762899169915
 K    4.966631718136   -1.463526398401   -6.879523546380
