17

 N   -3.011619278985   -1.162843427257    1.809792506006
 C   -1.801431212141   -0.507637223581    1.813754129974
 N   -0.568018797838   -1.106314918043    1.825792414879
 C    0.402404402218   -0.216138776432    1.813919957906
 N    0.199327564805    1.145499357082    1.807084797564
 H    1.003154690056    1.765459896837    1.725096775142
 N    1.727859156455   -0.634813498112    1.735572654671
 H    2.382395361787   -0.103010273712    2.303213431401
 H    1.806664243846   -1.635513642047    1.897155992660
 C   -1.059946177512    1.831533060613    1.820038584241
 O   -1.087526546617    3.059706145390    1.815950455813
 C   -2.132731303488    0.857839671339    1.826239782181
 N   -3.503804605257    1.044170716652    1.826164597465
 C   -3.997328099768   -0.194432297393    1.815834497800
 H   -5.054826013036   -0.448578919225    1.812887853374
 H   -3.136716275516   -2.169426512489    1.801132954975
 K    5.022353678094   -1.477784116770   -7.027743292103
