17

 N   -3.025992947147   -1.159165600549    1.848026291066
 C   -1.815804880303   -0.503959396873    1.851987915034
 N   -0.582392466000   -1.102637091335    1.864026199939
 C    0.388030734056   -0.212460949724    1.852153742966
 N    0.184953896643    1.149177183790    1.845318582624
 H    0.988781021894    1.769137723545    1.763330560202
 N    1.713485488293   -0.631135671404    1.773806439731
 H    2.368021693625   -0.099332447004    2.341447216461
 H    1.792290575684   -1.631835815339    1.935389777720
 C   -1.074319845674    1.835210887321    1.858272369301
 O   -1.101900214779    3.063383972098    1.854184240873
 C   -2.147104971650    0.861517498047    1.864473567241
 N   -3.518178273419    1.047848543360    1.864398382525
 C   -4.011701767930   -0.190754470685    1.854068282860
 H   -5.069199681198   -0.444901092517    1.851121638434
 H   -3.151089943678   -2.165748685781    1.839366740035
 K    5.078075638051   -1.492041835140   -7.175963037825
