17

 N   -3.033179781228   -1.157326687194    1.867143183596
 C   -1.822991714384   -0.502120483518    1.871104807564
 N   -0.589579300081   -1.100798177980    1.883143092469
 C    0.380843899975   -0.210622036369    1.871270635496
 N    0.177767062562    1.151016097145    1.864435475154
 H    0.981594187813    1.770976636900    1.782447452732
 N    1.706298654212   -0.629296758049    1.792923332261
 H    2.360834859544   -0.097493533649    2.360564108991
 H    1.785103741603   -1.629996901984    1.954506670250
 C   -1.081506679755    1.837049800676    1.877389261831
 O   -1.109087048860    3.065222885453    1.873301133403
 C   -2.154291805731    0.863356411402    1.883590459771
 N   -3.525365107500    1.049687456715    1.883515275055
 C   -4.018888602011   -0.188915557330    1.873185175390
 H   -5.076386515279   -0.443062179162    1.870238530964
 H   -3.158276777759   -2.163909772426    1.858483632565
 K    5.105936618030   -1.499170694324   -7.250072910686
