7

 C   -1.365567926456    1.682034722193    0.000000000000
 O   -1.365567926456    0.247148722193    0.000000000000
 H   -0.446557926456   -0.049652277807    0.000000000000
 H   -2.418886926456    1.990023722193    0.000000000000
 H   -0.876901926456    2.092967722193    0.899440000000
 H   -0.876901926456    2.092967722193   -0.899440000000
RB    0.505045908425   -0.356979695132    0.000000000000
