7

 C   -1.641961850214    1.771298161074    0.000000000000
 O   -1.641961850214    0.336412161074    0.000000000000
 H   -0.722951850214    0.039611161074    0.000000000000
 H   -2.695280850214    2.079287161074    0.000000000000
 H   -1.153295850214    2.182231161074    0.899440000000
 H   -1.153295850214    2.182231161074   -0.899440000000
RB    0.609293518619   -0.390647223182    0.000000000000
