7

 C   -1.711060331154    1.793614020794    0.000000000000
 O   -1.711060331154    0.358728020794    0.000000000000
 H   -0.792050331154    0.061927020794    0.000000000000
 H   -2.764379331154    2.101603020794    0.000000000000
 H   -1.222394331154    2.204547020794    0.899440000000
 H   -1.222394331154    2.204547020794   -0.899440000000
RB    0.635355421167   -0.399064105195    0.000000000000
