7

 C   -1.780158812093    1.815929880514    0.000000000000
 O   -1.780158812093    0.381043880514    0.000000000000
 H   -0.861148812093    0.084242880514    0.000000000000
 H   -2.833477812093    2.123918880514    0.000000000000
 H   -1.291492812093    2.226862880514    0.899440000000
 H   -1.291492812093    2.226862880514   -0.899440000000
RB    0.661417323716   -0.407480987207    0.000000000000
