7

 C   -2.194749697731    1.949825038834    0.000000000000
 O   -2.194749697731    0.514939038834    0.000000000000
 H   -1.275739697731    0.218138038834    0.000000000000
 H   -3.248068697731    2.257814038834    0.000000000000
 H   -1.706083697731    2.360758038834    0.899440000000
 H   -1.706083697731    2.360758038834   -0.899440000000
RB    0.817788739007   -0.457982279282    0.000000000000
