7

 C   -2.471143621489    2.039088477715    0.000000000000
 O   -2.471143621489    0.604202477715    0.000000000000
 H   -1.552133621489    0.307401477715    0.000000000000
 H   -3.524462621489    2.347077477715    0.000000000000
 H   -1.982477621489    2.450021477715    0.899440000000
 H   -1.982477621489    2.450021477715   -0.899440000000
RB    0.922036349201   -0.491649807332    0.000000000000
