7

 C   -2.609340583369    2.083720197155    0.000000000000
 O   -2.609340583369    0.648834197155    0.000000000000
 H   -1.690330583369    0.352033197155    0.000000000000
 H   -3.662659583369    2.391709197155    0.000000000000
 H   -2.120674583369    2.494653197155    0.899440000000
 H   -2.120674583369    2.494653197155   -0.899440000000
RB    0.974160154298   -0.508483571357    0.000000000000
