7

 C   -2.678439064308    2.106036056875    0.000000000000
 O   -2.678439064308    0.671150056875    0.000000000000
 H   -1.759429064308    0.374349056875    0.000000000000
 H   -3.731758064308    2.414025056875    0.000000000000
 H   -2.189773064308    2.516969056875    0.899440000000
 H   -2.189773064308    2.516969056875   -0.899440000000
RB    1.000222056846   -0.516900453369    0.000000000000
