7

 C   -2.816636026187    2.150667776315    0.000000000000
 O   -2.816636026187    0.715781776315    0.000000000000
 H   -1.897626026187    0.418980776315    0.000000000000
 H   -3.869955026187    2.458656776315    0.000000000000
 H   -2.327970026187    2.561600776315    0.899440000000
 H   -2.327970026187    2.561600776315   -0.899440000000
RB    1.052345861943   -0.533734217394    0.000000000000
