7

 C   -2.885734507127    2.172983636035    0.000000000000
 O   -2.885734507127    0.738097636035    0.000000000000
 H   -1.966724507127    0.441296636035    0.000000000000
 H   -3.939053507127    2.480972636035    0.000000000000
 H   -2.397068507127    2.583916636035    0.899440000000
 H   -2.397068507127    2.583916636035   -0.899440000000
RB    1.078407764492   -0.542151099407    0.000000000000
