7

 C   -3.093029949946    2.239931215196    0.000000000000
 O   -3.093029949946    0.805045215196    0.000000000000
 H   -2.174019949946    0.508244215196    0.000000000000
 H   -4.146348949946    2.547920215196    0.000000000000
 H   -2.604363949946    2.650864215196    0.899440000000
 H   -2.604363949946    2.650864215196   -0.899440000000
RB    1.156593472137   -0.567401745444    0.000000000000
