7

 C   -3.162128430885    2.262247074916    0.000000000000
 O   -3.162128430885    0.827361074916    0.000000000000
 H   -2.243118430885    0.530560074916    0.000000000000
 H   -4.215447430885    2.570236074916    0.000000000000
 H   -2.673462430885    2.673180074916    0.899440000000
 H   -2.673462430885    2.673180074916   -0.899440000000
RB    1.182655374686   -0.575818627457    0.000000000000
