7

 C   -3.369423873704    2.329194654076    0.000000000000
 O   -3.369423873704    0.894308654076    0.000000000000
 H   -2.450413873704    0.597507654076    0.000000000000
 H   -4.422742873704    2.637183654076    0.000000000000
 H   -2.880757873704    2.740127654076    0.899440000000
 H   -2.880757873704    2.740127654076   -0.899440000000
RB    1.260841082331   -0.601069273494    0.000000000000
