7

 C   -3.507620835583    2.373826373516    0.000000000000
 O   -3.507620835583    0.938940373516    0.000000000000
 H   -2.588610835583    0.642139373516    0.000000000000
 H   -4.560939835583    2.681815373516    0.000000000000
 H   -3.018954835583    2.784759373516    0.899440000000
 H   -3.018954835583    2.784759373516   -0.899440000000
RB    1.312964887428   -0.617903037519    0.000000000000
