7

 C   -3.576719316523    2.396142233236    0.000000000000
 O   -3.576719316523    0.961256233236    0.000000000000
 H   -2.657709316523    0.664455233236    0.000000000000
 H   -4.630038316523    2.704131233236    0.000000000000
 H   -3.088053316523    2.807075233236    0.899440000000
 H   -3.088053316523    2.807075233236   -0.899440000000
RB    1.339026789976   -0.626319919532    0.000000000000
