7

 C   -3.714916278402    2.440773952676    0.000000000000
 O   -3.714916278402    1.005887952676    0.000000000000
 H   -2.795906278402    0.709086952676    0.000000000000
 H   -4.768235278402    2.748762952676    0.000000000000
 H   -3.226250278402    2.851706952676    0.899440000000
 H   -3.226250278402    2.851706952676   -0.899440000000
RB    1.391150595073   -0.643153683557    0.000000000000
