7

 C   -3.853113240282    2.485405672116    0.000000000000
 O   -3.853113240282    1.050519672116    0.000000000000
 H   -2.934103240282    0.753718672116    0.000000000000
 H   -4.906432240282    2.793394672116    0.000000000000
 H   -3.364447240282    2.896338672116    0.899440000000
 H   -3.364447240282    2.896338672116   -0.899440000000
RB    1.443274400170   -0.659987447582    0.000000000000
