7

 C   -3.922211721221    2.507721531837    0.000000000000
 O   -3.922211721221    1.072835531837    0.000000000000
 H   -3.003201721221    0.776034531837    0.000000000000
 H   -4.975530721221    2.815710531837    0.000000000000
 H   -3.433545721221    2.918654531837    0.899440000000
 H   -3.433545721221    2.918654531837   -0.899440000000
RB    1.469336302719   -0.668404329594    0.000000000000
