7

 C   -4.198605644980    2.596984970717    0.000000000000
 O   -4.198605644980    1.162098970717    0.000000000000
 H   -3.279595644980    0.865297970717    0.000000000000
 H   -5.251924644980    2.904973970717    0.000000000000
 H   -3.709939644980    3.007917970717    0.899440000000
 H   -3.709939644980    3.007917970717   -0.899440000000
RB    1.573583912913   -0.702071857644    0.000000000000
