7

 C   -4.336802606859    2.641616690157    0.000000000000
 O   -4.336802606859    1.206730690157    0.000000000000
 H   -3.417792606859    0.909929690157    0.000000000000
 H   -5.390121606859    2.949605690157    0.000000000000
 H   -3.848136606859    3.052549690157    0.899440000000
 H   -3.848136606859    3.052549690157   -0.899440000000
RB    1.625707718010   -0.718905621669    0.000000000000
