7

 C   -4.474999568738    2.686248409597    0.000000000000
 O   -4.474999568738    1.251362409597    0.000000000000
 H   -3.555989568738    0.954561409597    0.000000000000
 H   -5.528318568738    2.994237409597    0.000000000000
 H   -3.986333568738    3.097181409597    0.899440000000
 H   -3.986333568738    3.097181409597   -0.899440000000
RB    1.677831523107   -0.735739385694    0.000000000000
