7

 C   -4.544098049678    2.708564269317    0.000000000000
 O   -4.544098049678    1.273678269317    0.000000000000
 H   -3.625088049678    0.976877269317    0.000000000000
 H   -5.597417049678    3.016553269317    0.000000000000
 H   -4.055432049678    3.119497269317    0.899440000000
 H   -4.055432049678    3.119497269317   -0.899440000000
RB    1.703893425655   -0.744156267706    0.000000000000
