7

 C   -4.682295011557    2.753195988758    0.000000000000
 O   -4.682295011557    1.318309988758    0.000000000000
 H   -3.763285011557    1.021508988758    0.000000000000
 H   -5.735614011557    3.061184988758    0.000000000000
 H   -4.193629011557    3.164128988758    0.899440000000
 H   -4.193629011557    3.164128988758   -0.899440000000
RB    1.756017230752   -0.760990031731    0.000000000000
