7

 C   -4.820491973436    2.797827708198    0.000000000000
 O   -4.820491973436    1.362941708198    0.000000000000
 H   -3.901481973436    1.066140708198    0.000000000000
 H   -5.873810973436    3.105816708198    0.000000000000
 H   -4.331825973436    3.208760708198    0.899440000000
 H   -4.331825973436    3.208760708198   -0.899440000000
RB    1.808141035849   -0.777823795756    0.000000000000
