7

 C   -6.893446401624    3.467303499800    0.000000000000
 O   -6.893446401624    2.032417499800    0.000000000000
 H   -5.974436401624    1.735616499800    0.000000000000
 H   -7.946765401624    3.775292499800    0.000000000000
 H   -6.404780401624    3.878236499800    0.899440000000
 H   -6.404780401624    3.878236499800   -0.899440000000
RB    2.589998112304   -1.030330256131    0.000000000000
