13

 N    0.566433017812    1.877465764682   -0.000038179433
 C    1.740172600895    2.604837956192   -0.000350658603
 H    1.622455740832    3.690156415236   -0.000466506162
 C    0.520657044732    0.484253972815   -0.000423234002
 O   -0.530931123824   -0.149849341026   -0.000079866898
 N    1.781097585873   -0.099216083317   -0.000006330680
 H    1.790913382996   -1.117501195183   -0.000033634775
 C    3.042351875106    0.536839403646    0.000010764156
 O    4.076044803174   -0.132424430770   -0.000734901508
 C    2.960873083346    1.997386465036   -0.000489133291
 H    3.884273221648    2.574446723902   -0.000829810068
 H   -0.337304158136    2.337119886042   -0.000239831033
CS   -1.472925984656   -0.717868343840    0.000227715535
