13

 N    0.798771863484    2.017565127132   -0.000114043273
 C    1.972511446567    2.744937318642   -0.000426522443
 H    1.854794586504    3.830255777686   -0.000542370002
 C    0.752995890404    0.624353335265   -0.000499097842
 O   -0.298592278152   -0.009749978576   -0.000155730738
 N    2.013436431545    0.040883279133   -0.000082194520
 H    2.023252228668   -0.977401832733   -0.000109498615
 C    3.274690720778    0.676938766096   -0.000065099684
 O    4.308383648846    0.007674931680   -0.000810765348
 C    3.193211929018    2.137485827486   -0.000564997131
 H    4.116612067320    2.714546086352   -0.000905673908
 H   -0.104965312464    2.477219248492   -0.000315694873
CS   -1.668766621181   -0.835959437215    0.000291661891
