13

 N    0.845239632619    2.045584999622   -0.000129216041
 C    2.018979215702    2.772957191132   -0.000441695211
 H    1.901262355639    3.858275650176   -0.000557542770
 C    0.799463659539    0.652373207755   -0.000514270610
 O   -0.252124509017    0.018269893914   -0.000170903506
 N    2.059904200680    0.068903151623   -0.000097367288
 H    2.069719997803   -0.949381960243   -0.000124671383
 C    3.321158489913    0.704958638586   -0.000080272452
 O    4.354851417981    0.035694804170   -0.000825938116
 C    3.239679698153    2.165505699976   -0.000580169899
 H    4.163079836455    2.742565958842   -0.000920846676
 H   -0.058497543329    2.505239120982   -0.000330867641
CS   -1.707934748485   -0.859577655890    0.000304451163
