13

 N    1.077578478291    2.185684362073   -0.000205079881
 C    2.251318061374    2.913056553583   -0.000517559051
 H    2.133601201311    3.998375012627   -0.000633406610
 C    1.031802505211    0.792472570206   -0.000590134450
 O   -0.019785663345    0.158369256365   -0.000246767346
 N    2.292243046352    0.209002514074   -0.000173231128
 H    2.302058843475   -0.809282597792   -0.000200535223
 C    3.553497335585    0.845058001037   -0.000156136292
 O    4.587190263653    0.175794166621   -0.000901801956
 C    3.472018543825    2.305605062427   -0.000656033739
 H    4.395418682127    2.882665321293   -0.000996710516
 H    0.173841302343    2.645338483433   -0.000406731481
CS   -1.903775385009   -0.977668749265    0.000368397520
