13

 N    1.402852862232    2.381823469503   -0.000311289257
 C    2.576592445315    3.109195661013   -0.000623768427
 H    2.458875585252    4.194514120057   -0.000739615986
 C    1.357076889152    0.988611677636   -0.000696343826
 O    0.305488720596    0.354508363795   -0.000352976722
 N    2.617517430293    0.405141621504   -0.000279440504
 H    2.627333227416   -0.613143490362   -0.000306744599
 C    3.878771719526    1.041197108467   -0.000262345668
 O    4.912464647594    0.371933274051   -0.001008011332
 C    3.797292927766    2.501744169857   -0.000762243115
 H    4.720693066068    3.078804428723   -0.001102919892
 H    0.499115686284    2.841477590863   -0.000512940857
CS   -2.177952276143   -1.142996279989    0.000457922419
