13

 N    1.495788400501    2.437863214483   -0.000341634793
 C    2.669527983584    3.165235405993   -0.000654113963
 H    2.551811123521    4.250553865037   -0.000769961522
 C    1.450012427421    1.044651422616   -0.000726689362
 O    0.398424258865    0.410548108775   -0.000383322258
 N    2.710452968562    0.461181366484   -0.000309786040
 H    2.720268765685   -0.557103745382   -0.000337090135
 C    3.971707257795    1.097236853447   -0.000292691204
 O    5.005400185863    0.427973019031   -0.001038356868
 C    3.890228466035    2.557783914837   -0.000792588651
 H    4.813628604337    3.134844173703   -0.001133265428
 H    0.592051224553    2.897517335843   -0.000543286393
CS   -2.256288530753   -1.190232717339    0.000483500962
