13

 N    1.588723938770    2.493902959463   -0.000371980329
 C    2.762463521853    3.221275150973   -0.000684459499
 H    2.644746661790    4.306593610017   -0.000800307058
 C    1.542947965690    1.100691167596   -0.000757034898
 O    0.491359797134    0.466587853755   -0.000413667794
 N    2.803388506831    0.517221111464   -0.000340131576
 H    2.813204303954   -0.501064000402   -0.000367435671
 C    4.064642796064    1.153276598427   -0.000323036740
 O    5.098335724132    0.484012764011   -0.001068702404
 C    3.983164004304    2.613823659817   -0.000822934187
 H    4.906564142606    3.190883918683   -0.001163610964
 H    0.684986762822    2.953557080823   -0.000573631929
CS   -2.334624785363   -1.237469154689    0.000509079504
