13

 N    1.728127246174    2.577962576933   -0.000417498633
 C    2.901866829257    3.305334768443   -0.000729977803
 H    2.784149969194    4.390653227487   -0.000845825362
 C    1.682351273094    1.184750785066   -0.000802553202
 O    0.630763104538    0.550647471225   -0.000459186098
 N    2.942791814235    0.601280728934   -0.000385649880
 H    2.952607611358   -0.417004382932   -0.000412953975
 C    4.204046103468    1.237336215897   -0.000368555044
 O    5.237739031536    0.568072381481   -0.001114220708
 C    4.122567311708    2.697883277287   -0.000868452491
 H    5.045967450010    3.274943536153   -0.001209129268
 H    0.824390070226    3.037616698293   -0.000619150233
CS   -2.452129167277   -1.308323810714    0.000547447318
