13

 N    1.774595015308    2.605982449423   -0.000432671401
 C    2.948334598391    3.333354640933   -0.000745150571
 H    2.830617738328    4.418673099977   -0.000860998130
 C    1.728819042228    1.212770657556   -0.000817725970
 O    0.677230873672    0.578667343715   -0.000474358866
 N    2.989259583369    0.629300601424   -0.000400822648
 H    2.999075380492   -0.388984510442   -0.000428126743
 C    4.250513872602    1.265356088387   -0.000383727812
 O    5.284206800670    0.596092253971   -0.001129393476
 C    4.169035080842    2.725903149777   -0.000883625259
 H    5.092435219144    3.302963408643   -0.001224302036
 H    0.870857839360    3.065636570783   -0.000634323001
CS   -2.491297294582   -1.331942029389    0.000560236590
