13

 N    1.913998322712    2.690042066893   -0.000478189705
 C    3.087737905795    3.417414258403   -0.000790668875
 H    2.970021045732    4.502732717447   -0.000906516434
 C    1.868222349632    1.296830275026   -0.000863244274
 O    0.816634181076    0.662726961185   -0.000519877170
 N    3.128662890773    0.713360218894   -0.000446340952
 H    3.138478687896   -0.304924892972   -0.000473645047
 C    4.389917180006    1.349415705857   -0.000429246116
 O    5.423610108074    0.680151871441   -0.001174911780
 C    4.308438388246    2.809962767247   -0.000929143563
 H    5.231838526548    3.387023026113   -0.001269820340
 H    1.010261146764    3.149696188253   -0.000679841305
CS   -2.608801676496   -1.402796685414    0.000598604404
