13

 N    1.960466091846    2.718061939383   -0.000493362473
 C    3.134205674929    3.445434130893   -0.000805841643
 H    3.016488814866    4.530752589937   -0.000921689202
 C    1.914690118766    1.324850147516   -0.000878417042
 O    0.863101950210    0.690746833675   -0.000535049938
 N    3.175130659907    0.741380091384   -0.000461513720
 H    3.184946457030   -0.276905020482   -0.000488817815
 C    4.436384949140    1.377435578347   -0.000444418884
 O    5.470077877208    0.708171743931   -0.001190084548
 C    4.354906157380    2.837982639737   -0.000944316331
 H    5.278306295682    3.415042898603   -0.001284993108
 H    1.056728915898    3.177716060743   -0.000695014073
CS   -2.647969803801   -1.426414904089    0.000611393675
