13

 N    2.146337168384    2.830141429343   -0.000554053545
 C    3.320076751467    3.557513620853   -0.000866532715
 H    3.202359891404    4.642832079897   -0.000982380274
 C    2.100561195304    1.436929637476   -0.000939108114
 O    1.048973026748    0.802826323635   -0.000595741010
 N    3.361001736445    0.853459581344   -0.000522204792
 H    3.370817533568   -0.164825530522   -0.000549508887
 C    4.622256025678    1.489515068307   -0.000505109956
 O    5.655948953746    0.820251233891   -0.001250775620
 C    4.540777233918    2.950062129697   -0.001005007403
 H    5.464177372220    3.527122388563   -0.001345684180
 H    1.242599992436    3.289795550703   -0.000755705145
CS   -2.804642313021   -1.520887778789    0.000662550761
