13

 N    2.192804937518    2.858161301833   -0.000569226313
 C    3.366544520601    3.585533493343   -0.000881705483
 H    3.248827660538    4.670851952387   -0.000997553042
 C    2.147028964438    1.464949509966   -0.000954280882
 O    1.095440795882    0.830846196125   -0.000610913778
 N    3.407469505579    0.881479453834   -0.000537377560
 H    3.417285302702   -0.136805658032   -0.000564681655
 C    4.668723794812    1.517534940797   -0.000520282724
 O    5.702416722880    0.848271106381   -0.001265948388
 C    4.587245003052    2.978082002187   -0.001020180171
 H    5.510645141354    3.555142261053   -0.001360856948
 H    1.289067761570    3.317815423193   -0.000770877913
CS   -2.843810440325   -1.544505997463    0.000675340032
