13

 N    2.239272706653    2.886181174323   -0.000584399081
 C    3.413012289736    3.613553365833   -0.000896878251
 H    3.295295429673    4.698871824877   -0.001012725810
 C    2.193496733573    1.492969382456   -0.000969453650
 O    1.141908565017    0.858866068615   -0.000626086546
 N    3.453937274714    0.909499326324   -0.000552550328
 H    3.463753071837   -0.108785785542   -0.000579854423
 C    4.715191563947    1.545554813287   -0.000535455492
 O    5.748884492015    0.876290978871   -0.001281121156
 C    4.633712772187    3.006101874677   -0.001035352939
 H    5.557112910489    3.583162133543   -0.001376029716
 H    1.335535530705    3.345835295683   -0.000786050681
CS   -2.882978567630   -1.568124216138    0.000688129303
