13

 N    2.285740475787    2.914201046813   -0.000599571849
 C    3.459480058870    3.641573238323   -0.000912051019
 H    3.341763198807    4.726891697367   -0.001027898578
 C    2.239964502707    1.520989254946   -0.000984626418
 O    1.188376334151    0.886885941105   -0.000641259314
 N    3.500405043848    0.937519198814   -0.000567723096
 H    3.510220840971   -0.080765913052   -0.000595027191
 C    4.761659333081    1.573574685777   -0.000550628260
 O    5.795352261149    0.904310851361   -0.001296293924
 C    4.680180541321    3.034121747167   -0.001050525707
 H    5.603580679623    3.611182006033   -0.001391202484
 H    1.382003299839    3.373855168173   -0.000801223449
CS   -2.922146694935   -1.591742434813    0.000700918575
