13

 N    2.518079321460    3.054300409264   -0.000675435689
 C    3.691818904543    3.781672600774   -0.000987914859
 H    3.574102044480    4.866991059818   -0.001103762418
 C    2.472303348380    1.661088617397   -0.001060490258
 O    1.420715179824    1.026985303556   -0.000717123154
 N    3.732743889521    1.077618561265   -0.000643586936
 H    3.742559686644    0.059333449399   -0.000670891031
 C    4.993998178754    1.713674048228   -0.000626492100
 O    6.027691106822    1.044410213812   -0.001372157764
 C    4.912519386994    3.174221109618   -0.001126389547
 H    5.835919525296    3.751281368484   -0.001467066324
 H    1.614342145512    3.513954530624   -0.000877087289
CS   -3.117987331459   -1.709833528188    0.000764864932
