13

 N    2.611014859729    3.110340154244   -0.000705781226
 C    3.784754442812    3.837712345754   -0.001018260396
 H    3.667037582749    4.923030804798   -0.001134107955
 C    2.565238886649    1.717128362377   -0.001090835795
 O    1.513650718093    1.083025048536   -0.000747468691
 N    3.825679427790    1.133658306245   -0.000673932473
 H    3.835495224913    0.115373194379   -0.000701236568
 C    5.086933717023    1.769713793208   -0.000656837637
 O    6.120626645091    1.100449958792   -0.001402503301
 C    5.005454925263    3.230260854598   -0.001156735084
 H    5.928855063565    3.807321113464   -0.001497411861
 H    1.707277683781    3.569994275604   -0.000907432826
CS   -3.196323586069   -1.757069965538    0.000790443474
