13

 N    2.750418167132    3.194399771714   -0.000751299530
 C    3.924157750215    3.921771963224   -0.001063778700
 H    3.806440890152    5.007090422268   -0.001179626259
 C    2.704642194052    1.801187979847   -0.001136354099
 O    1.653054025496    1.167084666006   -0.000792986995
 N    3.965082735193    1.217717923715   -0.000719450777
 H    3.974898532316    0.199432811849   -0.000746754872
 C    5.226337024426    1.853773410678   -0.000702355941
 O    6.260029952494    1.184509576262   -0.001448021605
 C    5.144858232666    3.314320472068   -0.001202253388
 H    6.068258370968    3.891380730934   -0.001542930165
 H    1.846680991184    3.654053893074   -0.000952951130
CS   -3.313827967983   -1.827924621563    0.000828811288
