13

 N    2.936289243670    3.306479261674   -0.000811990602
 C    4.110028826753    4.033851453184   -0.001124469772
 H    3.992311966690    5.119169912228   -0.001240317331
 C    2.890513270590    1.913267469807   -0.001197045171
 O    1.838925102034    1.279164155966   -0.000853678067
 N    4.150953811731    1.329797413675   -0.000780141849
 H    4.160769608854    0.311512301809   -0.000807445944
 C    5.412208100964    1.965852900638   -0.000763047013
 O    6.445901029032    1.296589066222   -0.001508712677
 C    5.330729309204    3.426399962028   -0.001262944460
 H    6.254129447506    4.003460220894   -0.001603621237
 H    2.032552067722    3.766133383034   -0.001013642202
CS   -3.470500477203   -1.922397496263    0.000879968374
