13

 N    2.982757012804    3.334499134164   -0.000827163370
 C    4.156496595887    4.061871325674   -0.001139642540
 H    4.038779735824    5.147189784718   -0.001255490099
 C    2.936981039724    1.941287342297   -0.001212217939
 O    1.885392871168    1.307184028456   -0.000868850835
 N    4.197421580865    1.357817286165   -0.000795314617
 H    4.207237377988    0.339532174299   -0.000822618712
 C    5.458675870098    1.993872773128   -0.000778219781
 O    6.492368798166    1.324608938712   -0.001523885445
 C    5.377197078338    3.454419834518   -0.001278117228
 H    6.300597216640    4.031480093384   -0.001618794005
 H    2.079019836856    3.794153255524   -0.001028814970
CS   -3.509668604507   -1.946015714937    0.000892757645
