13

 N    3.215095858477    3.474598496614   -0.000903027210
 C    4.388835441560    4.201970688124   -0.001215506380
 H    4.271118581497    5.287289147168   -0.001331353939
 C    3.169319885397    2.081386704747   -0.001288081779
 O    2.117731716841    1.447283390906   -0.000944714675
 N    4.429760426538    1.497916648615   -0.000871178457
 H    4.439576223661    0.479631536749   -0.000898482552
 C    5.691014715771    2.133972135578   -0.000854083621
 O    6.724707643839    1.464708301162   -0.001599749285
 C    5.609535924011    3.594519196968   -0.001353981068
 H    6.532936062313    4.171579455834   -0.001694657845
 H    2.311358682529    3.934252617974   -0.001104678810
CS   -3.705509241032   -2.064106808312    0.000956704002
