13

 N    3.308031396746    3.530638241594   -0.000933372746
 C    4.481770979829    4.258010433104   -0.001245851916
 H    4.364054119766    5.343328892148   -0.001361699475
 C    3.262255423666    2.137426449727   -0.001318427315
 O    2.210667255110    1.503323135886   -0.000975060211
 N    4.522695964807    1.553956393595   -0.000901523993
 H    4.532511761930    0.535671281729   -0.000928828088
 C    5.783950254040    2.190011880558   -0.000884429157
 O    6.817643182108    1.520748046142   -0.001630094821
 C    5.702471462280    3.650558941948   -0.001384326604
 H    6.625871600582    4.227619200814   -0.001725003381
 H    2.404294220798    3.990292362954   -0.001135024346
CS   -3.783845495641   -2.111343245662    0.000982282545
