13

 N    3.586838011552    3.698757476534   -0.001024409354
 C    4.760577594635    4.426129668044   -0.001336888524
 H    4.642860734572    5.511448127088   -0.001452736083
 C    3.541062038472    2.305545684667   -0.001409463923
 O    2.489473869916    1.671442370826   -0.001066096819
 N    4.801502579613    1.722075628535   -0.000992560601
 H    4.811318376736    0.703790516669   -0.001019864696
 C    6.062756868846    2.358131115498   -0.000975465765
 O    7.096449796914    1.688867281082   -0.001721131429
 C    5.981278077086    3.818678176888   -0.001475363212
 H    6.904678215388    4.395738435754   -0.001816039989
 H    2.683100835604    4.158411597894   -0.001226060954
CS   -4.018854259470   -2.253052557712    0.001059018173
