13

 N    3.679773549821    3.754797221514   -0.001054754890
 C    4.853513132904    4.482169413024   -0.001367234060
 H    4.735796272841    5.567487872068   -0.001483081619
 C    3.633997576741    2.361585429647   -0.001439809459
 O    2.582409408185    1.727482115806   -0.001096442355
 N    4.894438117882    1.778115373515   -0.001022906137
 H    4.904253915005    0.759830261649   -0.001050210232
 C    6.155692407115    2.414170860478   -0.001005811301
 O    7.189385335183    1.744907026062   -0.001751476965
 C    6.074213615355    3.874717921868   -0.001505708748
 H    6.997613753657    4.451778180734   -0.001846385525
 H    2.776036373873    4.214451342874   -0.001256406490
CS   -4.097190514080   -2.300288995062    0.001084596715
