13

 N    3.958580164628    3.922916456455   -0.001145791498
 C    5.132319747711    4.650288647965   -0.001458270668
 H    5.014602887648    5.735607107009   -0.001574118227
 C    3.912804191548    2.529704664588   -0.001530846067
 O    2.861216022992    1.895601350747   -0.001187478963
 N    5.173244732689    1.946234608456   -0.001113942745
 H    5.183060529812    0.927949496590   -0.001141246840
 C    6.434499021922    2.582290095419   -0.001096847909
 O    7.468191949990    1.913026261003   -0.001842513573
 C    6.353020230162    4.042837156809   -0.001596745356
 H    7.276420368464    4.619897415675   -0.001937422133
 H    3.054842988680    4.382570577815   -0.001347443098
CS   -4.332199277909   -2.441998307111    0.001161332344
