13

 N    4.097983472032    4.006976073925   -0.001191309802
 C    5.271723055115    4.734348265435   -0.001503788972
 H    5.154006195052    5.819666724479   -0.001619636531
 C    4.052207498952    2.613764282058   -0.001576364371
 O    3.000619330396    1.979660968217   -0.001232997267
 N    5.312648040093    2.030294225926   -0.001159461049
 H    5.322463837216    1.012009114060   -0.001186765144
 C    6.573902329326    2.666349712889   -0.001142366213
 O    7.607595257394    1.997085878473   -0.001888031877
 C    6.492423537566    4.126896774279   -0.001642263660
 H    7.415823675868    4.703957033145   -0.001982940437
 H    3.194246296084    4.466630195285   -0.001392961402
CS   -4.449703659823   -2.512852963136    0.001199700158
