13

 N    4.237386779435    4.091035691395   -0.001236828106
 C    5.411126362518    4.818407882905   -0.001549307276
 H    5.293409502455    5.903726341949   -0.001665154835
 C    4.191610806355    2.697823899528   -0.001621882675
 O    3.140022637799    2.063720585687   -0.001278515571
 N    5.452051347496    2.114353843396   -0.001204979353
 H    5.461867144619    1.096068731530   -0.001232283448
 C    6.713305636729    2.750409330359   -0.001187884517
 O    7.746998564797    2.081145495943   -0.001933550181
 C    6.631826844969    4.210956391749   -0.001687781964
 H    7.555226983271    4.788016650615   -0.002028458741
 H    3.333649603487    4.550689812755   -0.001438479706
CS   -4.567208041738   -2.583707619161    0.001238067972
