13

 N    4.516193394242    4.259154926335   -0.001327864714
 C    5.689932977325    4.986527117845   -0.001640343884
 H    5.572216117262    6.071845576889   -0.001756191443
 C    4.470417421162    2.865943134468   -0.001712919283
 O    3.418829252606    2.231839820627   -0.001369552179
 N    5.730857962303    2.282473078336   -0.001296015961
 H    5.740673759426    1.264187966470   -0.001323320056
 C    6.992112251536    2.918528565299   -0.001278921125
 O    8.025805179604    2.249264730883   -0.002024586789
 C    6.910633459776    4.379075626689   -0.001778818572
 H    7.834033598078    4.956135885555   -0.002119495349
 H    3.612456218294    4.718809047695   -0.001529516314
CS   -4.802216805567   -2.725416931211    0.001314803600
