13

 N    4.562661163376    4.287174798825   -0.001343037482
 C    5.736400746459    5.014546990335   -0.001655516652
 H    5.618683886396    6.099865449379   -0.001771364211
 C    4.516885190296    2.893963006958   -0.001728092051
 O    3.465297021740    2.259859693117   -0.001384724947
 N    5.777325731437    2.310492950826   -0.001311188729
 H    5.787141528560    1.292207838960   -0.001338492824
 C    7.038580020670    2.946548437789   -0.001294093893
 O    8.072272948738    2.277284603373   -0.002039759557
 C    6.957101228910    4.407095499179   -0.001793991340
 H    7.880501367212    4.984155758045   -0.002134668117
 H    3.658923987428    4.746828920185   -0.001544689082
CS   -4.841384932872   -2.749035149885    0.001327592871
