13

 N    4.609128932511    4.315194671315   -0.001358210250
 C    5.782868515594    5.042566862825   -0.001670689420
 H    5.665151655531    6.127885321869   -0.001786536979
 C    4.563352959431    2.921982879448   -0.001743264819
 O    3.511764790875    2.287879565607   -0.001399897715
 N    5.823793500572    2.338512823316   -0.001326361497
 H    5.833609297695    1.320227711450   -0.001353665592
 C    7.085047789805    2.974568310279   -0.001309266661
 O    8.118740717873    2.305304475863   -0.002054932325
 C    7.003568998045    4.435115371669   -0.001809164108
 H    7.926969136347    5.012175630535   -0.002149840885
 H    3.705391756563    4.774848792675   -0.001559861850
CS   -4.880553060176   -2.772653368560    0.001340382143
