13

 N    4.655596701645    4.343214543805   -0.001373383018
 C    5.829336284728    5.070586735315   -0.001685862188
 H    5.711619424665    6.155905194359   -0.001801709747
 C    4.609820728565    2.950002751938   -0.001758437587
 O    3.558232560009    2.315899438097   -0.001415070483
 N    5.870261269706    2.366532695806   -0.001341534265
 H    5.880077066829    1.348247583940   -0.001368838360
 C    7.131515558939    3.002588182769   -0.001324439429
 O    8.165208487007    2.333324348353   -0.002070105093
 C    7.050036767179    4.463135244159   -0.001824336876
 H    7.973436905481    5.040195503025   -0.002165013653
 H    3.751859525697    4.802868665165   -0.001575034618
CS   -4.919721187481   -2.796271587235    0.001353171414
