14

 C    0.208012037096   -0.743798513502    0.000000000000
 N    0.836766037096    0.445839486498    0.000000000000
 H    0.317419037096    1.314052486498    0.000000000000
 H    1.846755037096    0.505018486498    0.000000000000
 N   -1.134207962904   -0.784690513502    0.000000000000
 H   -1.682249962904    0.066043486498    0.000000000000
 H   -1.631811962904   -1.665113513502    0.000000000000
 N    0.908735037096   -1.881496513502    0.000000000000
 H    1.920022037096   -1.813095513502    0.000000000000
 C    0.293285037096   -3.214983513502    0.000000000000
 H    1.100691037096   -3.955194513502    0.000000000000
 H   -0.314583962904   -3.361973513502    0.905528000000
 H   -0.314583962904   -3.361973513502   -0.905528000000
CL   -0.452600518958    2.601324751132    0.000000000000
