14

 C    0.240937610273   -0.798841501454    0.000000000000
 N    0.869691610273    0.390796498546    0.000000000000
 H    0.350344610273    1.259009498546    0.000000000000
 H    1.879680610273    0.449975498546    0.000000000000
 N   -1.101282389727   -0.839733501454    0.000000000000
 H   -1.649324389727    0.011000498546    0.000000000000
 H   -1.598886389727   -1.720156501454    0.000000000000
 N    0.941660610273   -1.936539501454    0.000000000000
 H    1.952947610273   -1.868138501454    0.000000000000
 C    0.326210610273   -3.270026501454    0.000000000000
 H    1.133616610273   -4.010237501454    0.000000000000
 H   -0.281658389727   -3.417016501454    0.905528000000
 H   -0.281658389727   -3.417016501454   -0.905528000000
CL   -0.522344219922    2.717918065130    0.000000000000
