14

 C    0.257400396861   -0.826362995431    0.000000000000
 N    0.886154396861    0.363275004569    0.000000000000
 H    0.366807396861    1.231488004569    0.000000000000
 H    1.896143396861    0.422454004569    0.000000000000
 N   -1.084819603139   -0.867254995431    0.000000000000
 H   -1.632861603139   -0.016520995431    0.000000000000
 H   -1.582423603139   -1.747677995431    0.000000000000
 N    0.958123396861   -1.964060995431    0.000000000000
 H    1.969410396861   -1.895659995431    0.000000000000
 C    0.342673396861   -3.297547995431    0.000000000000
 H    1.150079396861   -4.037758995431    0.000000000000
 H   -0.265195603139   -3.444537995431    0.905528000000
 H   -0.265195603139   -3.444537995431   -0.905528000000
CL   -0.557216070404    2.776214722129    0.000000000000
