14

 C    0.273863183449   -0.853884489407    0.000000000000
 N    0.902617183449    0.335753510593    0.000000000000
 H    0.383270183449    1.203966510593    0.000000000000
 H    1.912606183449    0.394932510593    0.000000000000
 N   -1.068356816551   -0.894776489407    0.000000000000
 H   -1.616398816551   -0.044042489407    0.000000000000
 H   -1.565960816551   -1.775199489407    0.000000000000
 N    0.974586183449   -1.991582489407    0.000000000000
 H    1.985873183449   -1.923181489407    0.000000000000
 C    0.359136183449   -3.325069489407    0.000000000000
 H    1.166542183449   -4.065280489407    0.000000000000
 H   -0.248732816551   -3.472059489407    0.905528000000
 H   -0.248732816551   -3.472059489407   -0.905528000000
CL   -0.592087920886    2.834511379128    0.000000000000
