14

 C    0.290325970038   -0.881405983384    0.000000000000
 N    0.919079970038    0.308232016616    0.000000000000
 H    0.399732970038    1.176445016616    0.000000000000
 H    1.929068970038    0.367411016616    0.000000000000
 N   -1.051894029962   -0.922297983384    0.000000000000
 H   -1.599936029962   -0.071563983384    0.000000000000
 H   -1.549498029962   -1.802720983384    0.000000000000
 N    0.991048970038   -2.019103983384    0.000000000000
 H    2.002335970038   -1.950702983384    0.000000000000
 C    0.375598970038   -3.352590983384    0.000000000000
 H    1.183004970038   -4.092801983384    0.000000000000
 H   -0.232270029962   -3.499580983384    0.905528000000
 H   -0.232270029962   -3.499580983384   -0.905528000000
CL   -0.626959771368    2.892808036127    0.000000000000
