14

 C    0.323251543214   -0.936448971336    0.000000000000
 N    0.952005543214    0.253189028664    0.000000000000
 H    0.432658543214    1.121402028664    0.000000000000
 H    1.961994543214    0.312368028664    0.000000000000
 N   -1.018968456786   -0.977340971336    0.000000000000
 H   -1.567010456786   -0.126606971336    0.000000000000
 H   -1.516572456786   -1.857763971336    0.000000000000
 N    1.023974543214   -2.074146971336    0.000000000000
 H    2.035261543214   -2.005745971336    0.000000000000
 C    0.408524543214   -3.407633971336    0.000000000000
 H    1.215930543214   -4.147844971336    0.000000000000
 H   -0.199344456786   -3.554623971336    0.905528000000
 H   -0.199344456786   -3.554623971336   -0.905528000000
CL   -0.696703472332    3.009401350126    0.000000000000
