14

 C    0.372639902979   -1.019013453266    0.000000000000
 N    1.001393902979    0.170624546734    0.000000000000
 H    0.482046902979    1.038837546734    0.000000000000
 H    2.011382902979    0.229803546734    0.000000000000
 N   -0.969580097021   -1.059905453266    0.000000000000
 H   -1.517622097021   -0.209171453266    0.000000000000
 H   -1.467184097021   -1.940328453266    0.000000000000
 N    1.073362902979   -2.156711453266    0.000000000000
 H    2.084649902979   -2.088310453266    0.000000000000
 C    0.457912902979   -3.490198453266    0.000000000000
 H    1.265318902979   -4.230409453266    0.000000000000
 H   -0.149956097021   -3.637188453266    0.905528000000
 H   -0.149956097021   -3.637188453266   -0.905528000000
CL   -0.801319023778    3.184291321123    0.000000000000
