14

 C    0.438491049332   -1.129099429171    0.000000000000
 N    1.067245049332    0.060538570829    0.000000000000
 H    0.547898049332    0.928751570829    0.000000000000
 H    2.077234049332    0.119717570829    0.000000000000
 N   -0.903728950668   -1.169991429171    0.000000000000
 H   -1.451770950668   -0.319257429171    0.000000000000
 H   -1.401332950668   -2.050414429171    0.000000000000
 N    1.139214049332   -2.266797429171    0.000000000000
 H    2.150501049332   -2.198396429171    0.000000000000
 C    0.523764049332   -3.600284429171    0.000000000000
 H    1.331170049332   -4.340495429171    0.000000000000
 H   -0.084104950668   -3.747274429171    0.905528000000
 H   -0.084104950668   -3.747274429171   -0.905528000000
CL   -0.940806425706    3.417477949120    0.000000000000
