14

 C    0.454953835920   -1.156620923148    0.000000000000
 N    1.083707835920    0.033017076852    0.000000000000
 H    0.564360835920    0.901230076852    0.000000000000
 H    2.093696835920    0.092196076852    0.000000000000
 N   -0.887266164080   -1.197512923148    0.000000000000
 H   -1.435308164080   -0.346778923148    0.000000000000
 H   -1.384870164080   -2.077935923148    0.000000000000
 N    1.155676835920   -2.294318923148    0.000000000000
 H    2.166963835920   -2.225917923148    0.000000000000
 C    0.540226835920   -3.627805923148    0.000000000000
 H    1.347632835920   -4.368016923148    0.000000000000
 H   -0.067642164080   -3.774795923148    0.905528000000
 H   -0.067642164080   -3.774795923148   -0.905528000000
CL   -0.975678276188    3.475774606119    0.000000000000
