14

 C    0.520804982274   -1.266706899053    0.000000000000
 N    1.149558982274   -0.077068899053    0.000000000000
 H    0.630211982274    0.791144100947    0.000000000000
 H    2.159547982274   -0.017889899053    0.000000000000
 N   -0.821415017726   -1.307598899053    0.000000000000
 H   -1.369457017726   -0.456864899053    0.000000000000
 H   -1.319019017726   -2.188021899053    0.000000000000
 N    1.221527982274   -2.404404899053    0.000000000000
 H    2.232814982274   -2.336003899053    0.000000000000
 C    0.606077982274   -3.737891899053    0.000000000000
 H    1.413483982274   -4.478102899053    0.000000000000
 H   -0.001791017726   -3.884881899053    0.905528000000
 H   -0.001791017726   -3.884881899053   -0.905528000000
CL   -1.115165678116    3.708961234116    0.000000000000
