14

 C    0.537267768862   -1.294228393030    0.000000000000
 N    1.166021768862   -0.104590393030    0.000000000000
 H    0.646674768862    0.763622606970    0.000000000000
 H    2.176010768862   -0.045411393030    0.000000000000
 N   -0.804952231138   -1.335120393030    0.000000000000
 H   -1.352994231138   -0.484386393030    0.000000000000
 H   -1.302556231138   -2.215543393030    0.000000000000
 N    1.237990768862   -2.431926393030    0.000000000000
 H    2.249277768862   -2.363525393030    0.000000000000
 C    0.622540768862   -3.765413393030    0.000000000000
 H    1.429946768862   -4.505624393030    0.000000000000
 H    0.014671768862   -3.912403393030    0.905528000000
 H    0.014671768862   -3.912403393030   -0.905528000000
CL   -1.150037528598    3.767257891115    0.000000000000
