14

 C    0.553730555450   -1.321749887006    0.000000000000
 N    1.182484555450   -0.132111887006    0.000000000000
 H    0.663137555450    0.736101112994    0.000000000000
 H    2.192473555450   -0.072932887006    0.000000000000
 N   -0.788489444550   -1.362641887006    0.000000000000
 H   -1.336531444550   -0.511907887006    0.000000000000
 H   -1.286093444550   -2.243064887006    0.000000000000
 N    1.254453555450   -2.459447887006    0.000000000000
 H    2.265740555450   -2.391046887006    0.000000000000
 C    0.639003555450   -3.792934887006    0.000000000000
 H    1.446409555450   -4.533145887006    0.000000000000
 H    0.031134555450   -3.939924887006    0.905528000000
 H    0.031134555450   -3.939924887006   -0.905528000000
CL   -1.184909379080    3.825554548114    0.000000000000
