14

 C    0.603118915215   -1.404314368935    0.000000000000
 N    1.231872915215   -0.214676368935    0.000000000000
 H    0.712525915215    0.653536631065    0.000000000000
 H    2.241861915215   -0.155497368935    0.000000000000
 N   -0.739101084785   -1.445206368935    0.000000000000
 H   -1.287143084785   -0.594472368935    0.000000000000
 H   -1.236705084785   -2.325629368935    0.000000000000
 N    1.303841915215   -2.542012368935    0.000000000000
 H    2.315128915215   -2.473611368935    0.000000000000
 C    0.688391915215   -3.875499368935    0.000000000000
 H    1.495797915215   -4.615710368935    0.000000000000
 H    0.080522915215   -4.022489368935    0.905528000000
 H    0.080522915215   -4.022489368935   -0.905528000000
CL   -1.289524930526    4.000444519111    0.000000000000
