14

 C    0.668970061568   -1.514400344841    0.000000000000
 N    1.297724061568   -0.324762344841    0.000000000000
 H    0.778377061568    0.543450655159    0.000000000000
 H    2.307713061568   -0.265583344841    0.000000000000
 N   -0.673249938432   -1.555292344841    0.000000000000
 H   -1.221291938432   -0.704558344841    0.000000000000
 H   -1.170853938432   -2.435715344841    0.000000000000
 N    1.369693061568   -2.652098344841    0.000000000000
 H    2.380980061568   -2.583697344841    0.000000000000
 C    0.754243061568   -3.985585344841    0.000000000000
 H    1.561649061568   -4.725796344841    0.000000000000
 H    0.146374061568   -4.132575344841    0.905528000000
 H    0.146374061568   -4.132575344841   -0.905528000000
CL   -1.429012332454    4.233631147108    0.000000000000
