14

 C    0.718358421333   -1.596964826770    0.000000000000
 N    1.347112421333   -0.407326826770    0.000000000000
 H    0.827765421333    0.460886173230    0.000000000000
 H    2.357101421333   -0.348147826770    0.000000000000
 N   -0.623861578667   -1.637856826770    0.000000000000
 H   -1.171903578667   -0.787122826770    0.000000000000
 H   -1.121465578667   -2.518279826770    0.000000000000
 N    1.419081421333   -2.734662826770    0.000000000000
 H    2.430368421333   -2.666261826770    0.000000000000
 C    0.803631421333   -4.068149826770    0.000000000000
 H    1.611037421333   -4.808360826770    0.000000000000
 H    0.195762421333   -4.215139826770    0.905528000000
 H    0.195762421333   -4.215139826770   -0.905528000000
CL   -1.533627883900    4.408521118105    0.000000000000
