14

 C    0.734821207921   -1.624486320746    0.000000000000
 N    1.363575207921   -0.434848320746    0.000000000000
 H    0.844228207921    0.433364679254    0.000000000000
 H    2.373564207921   -0.375669320746    0.000000000000
 N   -0.607398792079   -1.665378320746    0.000000000000
 H   -1.155440792079   -0.814644320746    0.000000000000
 H   -1.105002792079   -2.545801320746    0.000000000000
 N    1.435544207921   -2.762184320746    0.000000000000
 H    2.446831207921   -2.693783320746    0.000000000000
 C    0.820094207921   -4.095671320746    0.000000000000
 H    1.627500207921   -4.835882320746    0.000000000000
 H    0.212225207921   -4.242661320746    0.905528000000
 H    0.212225207921   -4.242661320746   -0.905528000000
CL   -1.568499734382    4.466817775104    0.000000000000
