14

 C    0.751283994509   -1.652007814723    0.000000000000
 N    1.380037994509   -0.462369814723    0.000000000000
 H    0.860690994509    0.405843185277    0.000000000000
 H    2.390026994509   -0.403190814723    0.000000000000
 N   -0.590936005491   -1.692899814723    0.000000000000
 H   -1.138978005491   -0.842165814723    0.000000000000
 H   -1.088540005491   -2.573322814723    0.000000000000
 N    1.452006994509   -2.789705814723    0.000000000000
 H    2.463293994509   -2.721304814723    0.000000000000
 C    0.836556994509   -4.123192814723    0.000000000000
 H    1.643962994509   -4.863403814723    0.000000000000
 H    0.228687994509   -4.270182814723    0.905528000000
 H    0.228687994509   -4.270182814723   -0.905528000000
CL   -1.603371584864    4.525114432104    0.000000000000
