14

 C    0.767746781098   -1.679529308699    0.000000000000
 N    1.396500781098   -0.489891308699    0.000000000000
 H    0.877153781098    0.378321691301    0.000000000000
 H    2.406489781098   -0.430712308699    0.000000000000
 N   -0.574473218902   -1.720421308699    0.000000000000
 H   -1.122515218902   -0.869687308699    0.000000000000
 H   -1.072077218902   -2.600844308699    0.000000000000
 N    1.468469781098   -2.817227308699    0.000000000000
 H    2.479756781098   -2.748826308699    0.000000000000
 C    0.853019781098   -4.150714308699    0.000000000000
 H    1.660425781098   -4.890925308699    0.000000000000
 H    0.245150781098   -4.297704308699    0.905528000000
 H    0.245150781098   -4.297704308699   -0.905528000000
CL   -1.638243435346    4.583411089103    0.000000000000
