14

 C    0.833597927451   -1.789615284605    0.000000000000
 N    1.462351927451   -0.599977284605    0.000000000000
 H    0.943004927451    0.268235715395    0.000000000000
 H    2.472340927451   -0.540798284605    0.000000000000
 N   -0.508622072549   -1.830507284605    0.000000000000
 H   -1.056664072549   -0.979773284605    0.000000000000
 H   -1.006226072549   -2.710930284605    0.000000000000
 N    1.534320927451   -2.927313284605    0.000000000000
 H    2.545607927451   -2.858912284605    0.000000000000
 C    0.918870927451   -4.260800284605    0.000000000000
 H    1.726276927451   -5.001011284605    0.000000000000
 H    0.311001927451   -4.407790284605    0.905528000000
 H    0.311001927451   -4.407790284605   -0.905528000000
CL   -1.777730837274    4.816597717099    0.000000000000
