14

 C    0.850060714039   -1.817136778581    0.000000000000
 N    1.478814714039   -0.627498778581    0.000000000000
 H    0.959467714039    0.240714221419    0.000000000000
 H    2.488803714039   -0.568319778581    0.000000000000
 N   -0.492159285961   -1.858028778581    0.000000000000
 H   -1.040201285961   -1.007294778581    0.000000000000
 H   -0.989763285961   -2.738451778581    0.000000000000
 N    1.550783714039   -2.954834778581    0.000000000000
 H    2.562070714039   -2.886433778581    0.000000000000
 C    0.935333714039   -4.288321778581    0.000000000000
 H    1.742739714039   -5.028532778581    0.000000000000
 H    0.327464714039   -4.435311778581    0.905528000000
 H    0.327464714039   -4.435311778581   -0.905528000000
CL   -1.812602687756    4.874894374098    0.000000000000
