14

 C    0.882986287216   -1.872179766534    0.000000000000
 N    1.511740287216   -0.682541766534    0.000000000000
 H    0.992393287216    0.185671233466    0.000000000000
 H    2.521729287216   -0.623362766534    0.000000000000
 N   -0.459233712784   -1.913071766534    0.000000000000
 H   -1.007275712784   -1.062337766534    0.000000000000
 H   -0.956837712784   -2.793494766534    0.000000000000
 N    1.583709287216   -3.009877766534    0.000000000000
 H    2.594996287216   -2.941476766534    0.000000000000
 C    0.968259287216   -4.343364766534    0.000000000000
 H    1.775665287216   -5.083575766534    0.000000000000
 H    0.360390287216   -4.490354766534    0.905528000000
 H    0.360390287216   -4.490354766534   -0.905528000000
CL   -1.882346388720    4.991487688097    0.000000000000
