14

 C    0.981763006745   -2.037308730393    0.000000000000
 N    1.610517006745   -0.847670730393    0.000000000000
 H    1.091170006745    0.020542269607    0.000000000000
 H    2.620506006745   -0.788491730393    0.000000000000
 N   -0.360456993255   -2.078200730393    0.000000000000
 H   -0.908498993255   -1.227466730393    0.000000000000
 H   -0.858060993255   -2.958623730393    0.000000000000
 N    1.682486006745   -3.175006730393    0.000000000000
 H    2.693773006745   -3.106605730393    0.000000000000
 C    1.067036006745   -4.508493730393    0.000000000000
 H    1.874442006745   -5.248704730393    0.000000000000
 H    0.459167006745   -4.655483730393    0.905528000000
 H    0.459167006745   -4.655483730393   -0.905528000000
CL   -2.091577491612    5.341267630092    0.000000000000
