14

 C    0.998225793333   -2.064830224369    0.000000000000
 N    1.626979793333   -0.875192224369    0.000000000000
 H    1.107632793333   -0.006979224369    0.000000000000
 H    2.636968793333   -0.816013224369    0.000000000000
 N   -0.343994206667   -2.105722224369    0.000000000000
 H   -0.892036206667   -1.254988224369    0.000000000000
 H   -0.841598206667   -2.986145224369    0.000000000000
 N    1.698948793333   -3.202528224369    0.000000000000
 H    2.710235793333   -3.134127224369    0.000000000000
 C    1.083498793333   -4.536015224369    0.000000000000
 H    1.890904793333   -5.276226224369    0.000000000000
 H    0.475629793333   -4.683005224369    0.905528000000
 H    0.475629793333   -4.683005224369   -0.905528000000
CL   -2.126449342094    5.399564287091    0.000000000000
