14

 C    1.031151366510   -2.119873212322    0.000000000000
 N    1.659905366510   -0.930235212322    0.000000000000
 H    1.140558366510   -0.062022212322    0.000000000000
 H    2.669894366510   -0.871056212322    0.000000000000
 N   -0.311068633490   -2.160765212322    0.000000000000
 H   -0.859110633490   -1.310031212322    0.000000000000
 H   -0.808672633490   -3.041188212322    0.000000000000
 N    1.731874366510   -3.257571212322    0.000000000000
 H    2.743161366510   -3.189170212322    0.000000000000
 C    1.116424366510   -4.591058212322    0.000000000000
 H    1.923830366510   -5.331269212322    0.000000000000
 H    0.508555366510   -4.738048212322    0.905528000000
 H    0.508555366510   -4.738048212322   -0.905528000000
CL   -2.196193043058    5.516157601089    0.000000000000
