14

 C    1.047614153098   -2.147394706298    0.000000000000
 N    1.676368153098   -0.957756706298    0.000000000000
 H    1.157021153098   -0.089543706298    0.000000000000
 H    2.686357153098   -0.898577706298    0.000000000000
 N   -0.294605846902   -2.188286706298    0.000000000000
 H   -0.842647846902   -1.337552706298    0.000000000000
 H   -0.792209846902   -3.068709706298    0.000000000000
 N    1.748337153098   -3.285092706298    0.000000000000
 H    2.759624153098   -3.216691706298    0.000000000000
 C    1.132887153098   -4.618579706298    0.000000000000
 H    1.940293153098   -5.358790706298    0.000000000000
 H    0.525018153098   -4.765569706298    0.905528000000
 H    0.525018153098   -4.765569706298   -0.905528000000
CL   -2.231064893540    5.574454258088    0.000000000000
