14

 C    1.064076939687   -2.174916200275    0.000000000000
 N    1.692830939687   -0.985278200275    0.000000000000
 H    1.173483939687   -0.117065200275    0.000000000000
 H    2.702819939687   -0.926099200275    0.000000000000
 N   -0.278143060313   -2.215808200275    0.000000000000
 H   -0.826185060313   -1.365074200275    0.000000000000
 H   -0.775747060313   -3.096231200275    0.000000000000
 N    1.764799939687   -3.312614200275    0.000000000000
 H    2.776086939687   -3.244213200275    0.000000000000
 C    1.149349939687   -4.646101200275    0.000000000000
 H    1.956755939687   -5.386312200275    0.000000000000
 H    0.541480939687   -4.793091200275    0.905528000000
 H    0.541480939687   -4.793091200275   -0.905528000000
CL   -2.265936744022    5.632750915087    0.000000000000
