14

 C    1.080539726275   -2.202437694251    0.000000000000
 N    1.709293726275   -1.012799694251    0.000000000000
 H    1.189946726275   -0.144586694251    0.000000000000
 H    2.719282726275   -0.953620694251    0.000000000000
 N   -0.261680273725   -2.243329694251    0.000000000000
 H   -0.809722273725   -1.392595694251    0.000000000000
 H   -0.759284273725   -3.123752694251    0.000000000000
 N    1.781262726275   -3.340135694251    0.000000000000
 H    2.792549726275   -3.271734694251    0.000000000000
 C    1.165812726275   -4.673622694251    0.000000000000
 H    1.973218726275   -5.413833694251    0.000000000000
 H    0.557943726275   -4.820612694251    0.905528000000
 H    0.557943726275   -4.820612694251   -0.905528000000
CL   -2.300808594504    5.691047572087    0.000000000000
