14

 C    1.129928086040   -2.285002176180    0.000000000000
 N    1.758682086040   -1.095364176180    0.000000000000
 H    1.239335086040   -0.227151176180    0.000000000000
 H    2.768671086040   -1.036185176180    0.000000000000
 N   -0.212291913960   -2.325894176180    0.000000000000
 H   -0.760333913960   -1.475160176180    0.000000000000
 H   -0.709895913960   -3.206317176180    0.000000000000
 N    1.830651086040   -3.422700176180    0.000000000000
 H    2.841938086040   -3.354299176180    0.000000000000
 C    1.215201086040   -4.756187176180    0.000000000000
 H    2.022607086040   -5.496398176180    0.000000000000
 H    0.607332086040   -4.903177176180    0.905528000000
 H    0.607332086040   -4.903177176180   -0.905528000000
CL   -2.405424145950    5.865937543084    0.000000000000
