14

 C    1.162853659216   -2.340045164133    0.000000000000
 N    1.791607659216   -1.150407164133    0.000000000000
 H    1.272260659216   -0.282194164133    0.000000000000
 H    2.801596659216   -1.091228164133    0.000000000000
 N   -0.179366340784   -2.380937164133    0.000000000000
 H   -0.727408340784   -1.530203164133    0.000000000000
 H   -0.676970340784   -3.261360164133    0.000000000000
 N    1.863576659216   -3.477743164133    0.000000000000
 H    2.874863659216   -3.409342164133    0.000000000000
 C    1.248126659216   -4.811230164133    0.000000000000
 H    2.055532659216   -5.551441164133    0.000000000000
 H    0.640257659216   -4.958220164133    0.905528000000
 H    0.640257659216   -4.958220164133   -0.905528000000
CL   -2.475167846914    5.982530857082    0.000000000000
