14

 C    1.212242018981   -2.422609646062    0.000000000000
 N    1.840996018981   -1.232971646062    0.000000000000
 H    1.321649018981   -0.364758646062    0.000000000000
 H    2.850985018981   -1.173792646062    0.000000000000
 N   -0.129977981019   -2.463501646062    0.000000000000
 H   -0.678019981019   -1.612767646062    0.000000000000
 H   -0.627581981019   -3.343924646062    0.000000000000
 N    1.912965018981   -3.560307646062    0.000000000000
 H    2.924252018981   -3.491906646062    0.000000000000
 C    1.297515018981   -4.893794646062    0.000000000000
 H    2.104921018981   -5.634005646062    0.000000000000
 H    0.689646018981   -5.040784646062    0.905528000000
 H    0.689646018981   -5.040784646062   -0.905528000000
CL   -2.579783398360    6.157420828080    0.000000000000
