14

 C    1.261630378746   -2.505174127991    0.000000000000
 N    1.890384378746   -1.315536127991    0.000000000000
 H    1.371037378746   -0.447323127991    0.000000000000
 H    2.900373378746   -1.256357127991    0.000000000000
 N   -0.080589621254   -2.546066127991    0.000000000000
 H   -0.628631621254   -1.695332127991    0.000000000000
 H   -0.578193621254   -3.426489127991    0.000000000000
 N    1.962353378746   -3.642872127991    0.000000000000
 H    2.973640378746   -3.574471127991    0.000000000000
 C    1.346903378746   -4.976359127991    0.000000000000
 H    2.154309378746   -5.716570127991    0.000000000000
 H    0.739034378746   -5.123349127991    0.905528000000
 H    0.739034378746   -5.123349127991   -0.905528000000
CL   -2.684398949806    6.332310799077    0.000000000000
