14

 C    1.294555951922   -2.560217115944    0.000000000000
 N    1.923309951922   -1.370579115944    0.000000000000
 H    1.403962951922   -0.502366115944    0.000000000000
 H    2.933298951922   -1.311400115944    0.000000000000
 N   -0.047664048078   -2.601109115944    0.000000000000
 H   -0.595706048078   -1.750375115944    0.000000000000
 H   -0.545268048078   -3.481532115944    0.000000000000
 N    1.995278951922   -3.697915115944    0.000000000000
 H    3.006565951922   -3.629514115944    0.000000000000
 C    1.379828951922   -5.031402115944    0.000000000000
 H    2.187234951922   -5.771613115944    0.000000000000
 H    0.771959951922   -5.178392115944    0.905528000000
 H    0.771959951922   -5.178392115944   -0.905528000000
CL   -2.754142650770    6.448904113075    0.000000000000
