14

 C    1.311018738511   -2.587738609921    0.000000000000
 N    1.939772738511   -1.398100609921    0.000000000000
 H    1.420425738511   -0.529887609921    0.000000000000
 H    2.949761738511   -1.338921609921    0.000000000000
 N   -0.031201261489   -2.628630609921    0.000000000000
 H   -0.579243261489   -1.777896609921    0.000000000000
 H   -0.528805261489   -3.509053609921    0.000000000000
 N    2.011741738511   -3.725436609921    0.000000000000
 H    3.023028738511   -3.657035609921    0.000000000000
 C    1.396291738511   -5.058923609921    0.000000000000
 H    2.203697738511   -5.799134609921    0.000000000000
 H    0.788422738511   -5.205913609921    0.905528000000
 H    0.788422738511   -5.205913609921   -0.905528000000
CL   -2.789014501252    6.507200770075    0.000000000000
