14

 C    1.360407098275   -2.670303091850    0.000000000000
 N    1.989161098275   -1.480665091850    0.000000000000
 H    1.469814098275   -0.612452091850    0.000000000000
 H    2.999150098275   -1.421486091850    0.000000000000
 N    0.018187098275   -2.711195091850    0.000000000000
 H   -0.529854901725   -1.860461091850    0.000000000000
 H   -0.479416901725   -3.591618091850    0.000000000000
 N    2.061130098275   -3.808001091850    0.000000000000
 H    3.072417098275   -3.739600091850    0.000000000000
 C    1.445680098275   -5.141488091850    0.000000000000
 H    2.253086098275   -5.881699091850    0.000000000000
 H    0.837811098275   -5.288478091850    0.905528000000
 H    0.837811098275   -5.288478091850   -0.905528000000
CL   -2.893630052698    6.682090741072    0.000000000000
