14

 C    1.393332671452   -2.725346079803    0.000000000000
 N    2.022086671452   -1.535708079803    0.000000000000
 H    1.502739671452   -0.667495079803    0.000000000000
 H    3.032075671452   -1.476529079803    0.000000000000
 N    0.051112671452   -2.766238079803    0.000000000000
 H   -0.496929328548   -1.915504079803    0.000000000000
 H   -0.446491328548   -3.646661079803    0.000000000000
 N    2.094055671452   -3.863044079803    0.000000000000
 H    3.105342671452   -3.794643079803    0.000000000000
 C    1.478605671452   -5.196531079803    0.000000000000
 H    2.286011671452   -5.936742079803    0.000000000000
 H    0.870736671452   -5.343521079803    0.905528000000
 H    0.870736671452   -5.343521079803   -0.905528000000
CL   -2.963373753662    6.798684055070    0.000000000000
