14

 C    1.442721031217   -2.807910561732    0.000000000000
 N    2.071475031217   -1.618272561732    0.000000000000
 H    1.552128031217   -0.750059561732    0.000000000000
 H    3.081464031217   -1.559093561732    0.000000000000
 N    0.100501031217   -2.848802561732    0.000000000000
 H   -0.447540968783   -1.998068561732    0.000000000000
 H   -0.397102968783   -3.729225561732    0.000000000000
 N    2.143444031217   -3.945608561732    0.000000000000
 H    3.154731031217   -3.877207561732    0.000000000000
 C    1.527994031217   -5.279095561732    0.000000000000
 H    2.335400031217   -6.019306561732    0.000000000000
 H    0.920125031217   -5.426085561732    0.905528000000
 H    0.920125031217   -5.426085561732   -0.905528000000
CL   -3.067989305108    6.973574026068    0.000000000000
