14

 C    1.459183817805   -2.835432055708    0.000000000000
 N    2.087937817805   -1.645794055708    0.000000000000
 H    1.568590817805   -0.777581055708    0.000000000000
 H    3.097926817805   -1.586615055708    0.000000000000
 N    0.116963817805   -2.876324055708    0.000000000000
 H   -0.431078182195   -2.025590055708    0.000000000000
 H   -0.380640182195   -3.756747055708    0.000000000000
 N    2.159906817805   -3.973130055708    0.000000000000
 H    3.171193817805   -3.904729055708    0.000000000000
 C    1.544456817805   -5.306617055708    0.000000000000
 H    2.351862817805   -6.046828055708    0.000000000000
 H    0.936587817805   -5.453607055708    0.905528000000
 H    0.936587817805   -5.453607055708   -0.905528000000
CL   -3.102861155590    7.031870683067    0.000000000000
