12

 C   -1.239632151527    1.438003179725   -0.086560919789
 C   -0.127290151527    0.418525179725   -0.086560919789
 O   -0.631621151527   -0.847927820275   -0.086560919789
 C    0.382844848473   -1.881666820275   -0.086560919789
 O    1.070349848473    0.663018179725   -0.086560919789
 H   -0.807062151527    2.445013179725   -0.086560919789
 H   -1.871969151527    1.295431179725    0.802054080211
 H   -1.871969151527    1.295431179725   -0.975175919789
 H   -0.171252151527   -2.826790820275   -0.086560919789
 H    1.012639848473   -1.795367820275    0.809629080211
 H    1.012639848473   -1.795367820275   -0.982750919789
LI    1.070349848473    0.663018179725    0.913439080211
