12

 C   -1.239632151527    1.438003179725   -0.138497471662
 C   -0.127290151527    0.418525179725   -0.138497471662
 O   -0.631621151527   -0.847927820275   -0.138497471662
 C    0.382844848473   -1.881666820275   -0.138497471662
 O    1.070349848473    0.663018179725   -0.138497471662
 H   -0.807062151527    2.445013179725   -0.138497471662
 H   -1.871969151527    1.295431179725    0.750117528338
 H   -1.871969151527    1.295431179725   -1.027112471662
 H   -0.171252151527   -2.826790820275   -0.138497471662
 H    1.012639848473   -1.795367820275    0.757692528338
 H    1.012639848473   -1.795367820275   -1.034687471662
LI    1.070349848473    0.663018179725    1.461502528338
