12

 C   -1.239632151527    1.438003179725   -0.337587587177
 C   -0.127290151527    0.418525179725   -0.337587587177
 O   -0.631621151527   -0.847927820275   -0.337587587177
 C    0.382844848473   -1.881666820275   -0.337587587177
 O    1.070349848473    0.663018179725   -0.337587587177
 H   -0.807062151527    2.445013179725   -0.337587587177
 H   -1.871969151527    1.295431179725    0.551027412823
 H   -1.871969151527    1.295431179725   -1.226202587177
 H   -0.171252151527   -2.826790820275   -0.337587587177
 H    1.012639848473   -1.795367820275    0.558602412823
 H    1.012639848473   -1.795367820275   -1.233777587177
LI    1.070349848473    0.663018179725    3.562412412823
