12

 C   -1.239632151527    1.438003179725   -0.389524139050
 C   -0.127290151527    0.418525179725   -0.389524139050
 O   -0.631621151527   -0.847927820275   -0.389524139050
 C    0.382844848473   -1.881666820275   -0.389524139050
 O    1.070349848473    0.663018179725   -0.389524139050
 H   -0.807062151527    2.445013179725   -0.389524139050
 H   -1.871969151527    1.295431179725    0.499090860950
 H   -1.871969151527    1.295431179725   -1.278139139050
 H   -0.171252151527   -2.826790820275   -0.389524139050
 H    1.012639848473   -1.795367820275    0.506665860950
 H    1.012639848473   -1.795367820275   -1.285714139050
LI    1.070349848473    0.663018179725    4.110475860950
