12

 C   -1.239632151527    1.438003179725   -0.415492414987
 C   -0.127290151527    0.418525179725   -0.415492414987
 O   -0.631621151527   -0.847927820275   -0.415492414987
 C    0.382844848473   -1.881666820275   -0.415492414987
 O    1.070349848473    0.663018179725   -0.415492414987
 H   -0.807062151527    2.445013179725   -0.415492414987
 H   -1.871969151527    1.295431179725    0.473122585013
 H   -1.871969151527    1.295431179725   -1.304107414987
 H   -0.171252151527   -2.826790820275   -0.415492414987
 H    1.012639848473   -1.795367820275    0.480697585013
 H    1.012639848473   -1.795367820275   -1.311682414987
LI    1.070349848473    0.663018179725    4.384507585013
