12

 C   -1.239632151527    1.438003179725   -0.553989886649
 C   -0.127290151527    0.418525179725   -0.553989886649
 O   -0.631621151527   -0.847927820275   -0.553989886649
 C    0.382844848473   -1.881666820275   -0.553989886649
 O    1.070349848473    0.663018179725   -0.553989886649
 H   -0.807062151527    2.445013179725   -0.553989886649
 H   -1.871969151527    1.295431179725    0.334625113351
 H   -1.871969151527    1.295431179725   -1.442604886649
 H   -0.171252151527   -2.826790820275   -0.553989886649
 H    1.012639848473   -1.795367820275    0.342200113351
 H    1.012639848473   -1.795367820275   -1.450179886649
LI    1.070349848473    0.663018179725    5.846010113351
