12

 C   -1.239632151527    1.438003179725   -0.692487358311
 C   -0.127290151527    0.418525179725   -0.692487358311
 O   -0.631621151527   -0.847927820275   -0.692487358311
 C    0.382844848473   -1.881666820275   -0.692487358311
 O    1.070349848473    0.663018179725   -0.692487358311
 H   -0.807062151527    2.445013179725   -0.692487358311
 H   -1.871969151527    1.295431179725    0.196127641689
 H   -1.871969151527    1.295431179725   -1.581102358311
 H   -0.171252151527   -2.826790820275   -0.692487358311
 H    1.012639848473   -1.795367820275    0.203702641689
 H    1.012639848473   -1.795367820275   -1.588677358311
LI    1.070349848473    0.663018179725    7.307512641689
