12

 C   -1.239632151527    1.438003179725   -0.701143450290
 C   -0.127290151527    0.418525179725   -0.701143450290
 O   -0.631621151527   -0.847927820275   -0.701143450290
 C    0.382844848473   -1.881666820275   -0.701143450290
 O    1.070349848473    0.663018179725   -0.701143450290
 H   -0.807062151527    2.445013179725   -0.701143450290
 H   -1.871969151527    1.295431179725    0.187471549710
 H   -1.871969151527    1.295431179725   -1.589758450290
 H   -0.171252151527   -2.826790820275   -0.701143450290
 H    1.012639848473   -1.795367820275    0.195046549710
 H    1.012639848473   -1.795367820275   -1.597333450290
LI    1.070349848473    0.663018179725    7.398856549710
