19

 C    0.852077358660   -4.088271164416    0.000000000000
 C   -0.360162641340   -3.191181164416    0.000000000000
 N   -1.563092641340   -3.804801164416    0.000000000000
 H   -2.402992641340   -3.240741164416    0.000000000000
 H   -1.648472641340   -4.811751164416    0.000000000000
 O   -0.271942641340   -1.946941164416    0.000000000000
 H    1.754507358660   -3.469231164416    0.000000000000
 H    0.848807358660   -4.734071164416    0.890140000000
 H    0.848807358660   -4.734071164416   -0.890140000000
 K    0.063817358660    0.456918835584    0.000000000000
 O    0.229816352509    1.645381848909    0.000000000000
 C    0.318044282096    2.889617679466    0.000000000000
 N    1.520978771887    3.503237083715    0.000000000000
 H    2.360867225537    2.939176143900    0.000000000000
 H    1.606355677955    4.510183516437    0.000000000000
 C   -0.894192546300    3.786716981818    0.000000000000
 H   -1.796619107128    3.167680361001    0.000000000000
 H   -0.890920518119    4.432512324758   -0.890136923045
 H   -0.890920518119    4.432512324758    0.890136923045
