19

 C    0.820874383574   -4.311667589517    0.000000000000
 C   -0.391365616426   -3.414577589517    0.000000000000
 N   -1.594295616426   -4.028197589517    0.000000000000
 H   -2.434195616426   -3.464137589517    0.000000000000
 H   -1.679675616426   -5.035147589517    0.000000000000
 O   -0.303145616426   -2.170337589517    0.000000000000
 H    1.723304383574   -3.692627589517    0.000000000000
 H    0.817604383574   -4.957467589517    0.890140000000
 H    0.817604383574   -4.957467589517   -0.890140000000
 K    0.032614383574    0.233522410483    0.000000000000
 O    0.281612874347    2.016216930470    0.000000000000
 C    0.369840803934    3.260452761027    0.000000000000
 N    1.572775293725    3.874072165276    0.000000000000
 H    2.412663747375    3.310011225461    0.000000000000
 H    1.658152199793    4.881018597998    0.000000000000
 C   -0.842396024462    4.157552063379    0.000000000000
 H   -1.744822585290    3.538515442563    0.000000000000
 H   -0.839123996281    4.803347406319   -0.890136923045
 H   -0.839123996281    4.803347406319    0.890136923045
