19

 C    0.394433724055   -7.364752065901    0.000000000000
 C   -0.817806275945   -6.467662065901    0.000000000000
 N   -2.020736275945   -7.081282065901    0.000000000000
 H   -2.860636275945   -6.517222065901    0.000000000000
 H   -2.106116275945   -8.088232065901    0.000000000000
 O   -0.729586275945   -5.223422065901    0.000000000000
 H    1.296863724055   -6.745712065901    0.000000000000
 H    0.391163724055   -8.010552065901    0.890140000000
 H    0.391163724055   -8.010552065901   -0.890140000000
 K   -0.393826275945   -2.819562065901    0.000000000000
 O    0.989498672797    7.084296378473    0.000000000000
 C    1.077726602384    8.328532209029    0.000000000000
 N    2.280661092174    8.942151613279    0.000000000000
 H    3.120549545824    8.378090673464    0.000000000000
 H    2.366037998242    9.949098046001    0.000000000000
 C   -0.134510226012    9.225631511382    0.000000000000
 H   -1.036936786841    8.606594890565    0.000000000000
 H   -0.131238197831    9.871426854322   -0.890136923045
 H   -0.131238197831    9.871426854322    0.890136923045
