19

 C    0.805272896030   -4.423365802068    0.000000000000
 C   -0.406967103970   -3.526275802068    0.000000000000
 N   -1.609897103970   -4.139895802068    0.000000000000
 H   -2.449797103970   -3.575835802068    0.000000000000
 H   -1.695277103970   -5.146845802068    0.000000000000
 O   -0.318747103970   -2.282035802068    0.000000000000
 H    1.707702896030   -3.804325802068    0.000000000000
 H    0.802002896030   -5.069165802068    0.890140000000
 H    0.802002896030   -5.069165802068   -0.890140000000
 K    0.017012896030    0.121824197932    0.000000000000
 O    0.307511135266    2.201634471251    0.000000000000
 C    0.395739064853    3.445870301807    0.000000000000
 N    1.598673554644    4.059489706057    0.000000000000
 H    2.438562008293    3.495428766242    0.000000000000
 H    1.684050460711    5.066436138779    0.000000000000
 C   -0.816497763543    4.342969604159    0.000000000000
 H   -1.718924324371    3.723932983343    0.000000000000
 H   -0.813225735362    4.988764947100   -0.890136923045
 H   -0.813225735362    4.988764947100    0.890136923045
