19

 C    0.789671408487   -4.535064014618    0.000000000000
 C   -0.422568591513   -3.637974014618    0.000000000000
 N   -1.625498591513   -4.251594014618    0.000000000000
 H   -2.465398591513   -3.687534014618    0.000000000000
 H   -1.710878591513   -5.258544014618    0.000000000000
 O   -0.334348591513   -2.393734014618    0.000000000000
 H    1.692101408487   -3.916024014618    0.000000000000
 H    0.786401408487   -5.180864014618    0.890140000000
 H    0.786401408487   -5.180864014618   -0.890140000000
 K    0.001411408487    0.010125985382    0.000000000000
 O    0.333409396185    2.387052012031    0.000000000000
 C    0.421637325772    3.631287842588    0.000000000000
 N    1.624571815562    4.244907246838    0.000000000000
 H    2.464460269212    3.680846307022    0.000000000000
 H    1.709948721630    5.251853679559    0.000000000000
 C   -0.790599502624    4.528387144940    0.000000000000
 H   -1.693026063453    3.909350524124    0.000000000000
 H   -0.787327474443    5.174182487880   -0.890136923045
 H   -0.787327474443    5.174182487880    0.890136923045
