19

 C    0.753267937552   -4.795693177236    0.000000000000
 C   -0.458972062448   -3.898603177236    0.000000000000
 N   -1.661902062448   -4.512223177236    0.000000000000
 H   -2.501802062448   -3.948163177236    0.000000000000
 H   -1.747282062448   -5.519173177236    0.000000000000
 O   -0.370752062448   -2.654363177236    0.000000000000
 H    1.655697937552   -4.176653177236    0.000000000000
 H    0.749997937552   -5.441493177236    0.890140000000
 H    0.749997937552   -5.441493177236   -0.890140000000
 K   -0.034992062448   -0.250503177236    0.000000000000
 O    0.393838671662    2.819692940519    0.000000000000
 C    0.482066601249    4.063928771076    0.000000000000
 N    1.685001091040    4.677548175326    0.000000000000
 H    2.524889544690    4.113487235510    0.000000000000
 H    1.770377997108    5.684494608047    0.000000000000
 C   -0.730170227147    4.961028073428    0.000000000000
 H   -1.632596787975    4.341991452612    0.000000000000
 H   -0.726898198966    5.606823416368   -0.890136923045
 H   -0.726898198966    5.606823416368    0.890136923045
