19

 C    0.748067441705   -4.832925914753    0.000000000000
 C   -0.464172558295   -3.935835914753    0.000000000000
 N   -1.667102558295   -4.549455914753    0.000000000000
 H   -2.507002558295   -3.985395914753    0.000000000000
 H   -1.752482558295   -5.556405914753    0.000000000000
 O   -0.375952558295   -2.691595914753    0.000000000000
 H    1.650497441705   -4.213885914753    0.000000000000
 H    0.744797441705   -5.478725914753    0.890140000000
 H    0.744797441705   -5.478725914753   -0.890140000000
 K   -0.040192558295   -0.287735914753    0.000000000000
 O    0.402471425302    2.881498787446    0.000000000000
 C    0.490699354889    4.125734618003    0.000000000000
 N    1.693633844679    4.739354022253    0.000000000000
 H    2.533522298329    4.175293082437    0.000000000000
 H    1.779010750747    5.746300454974    0.000000000000
 C   -0.721537473507    5.022833920355    0.000000000000
 H   -1.623964034336    4.403797299539    0.000000000000
 H   -0.718265445326    5.668629263295   -0.890136923045
 H   -0.718265445326    5.668629263295    0.890136923045
