19

 C    0.727265458314   -4.981856864821    0.000000000000
 C   -0.484974541686   -4.084766864821    0.000000000000
 N   -1.687904541686   -4.698386864821    0.000000000000
 H   -2.527804541686   -4.134326864821    0.000000000000
 H   -1.773284541686   -5.705336864821    0.000000000000
 O   -0.396754541686   -2.840526864821    0.000000000000
 H    1.629695458314   -4.362816864821    0.000000000000
 H    0.723995458314   -5.627656864821    0.890140000000
 H    0.723995458314   -5.627656864821   -0.890140000000
 K   -0.060994541686   -0.436666864821    0.000000000000
 O    0.437002439861    3.128722175154    0.000000000000
 C    0.525230369447    4.372958005710    0.000000000000
 N    1.728164859238    4.986577409960    0.000000000000
 H    2.568053312888    4.422516470145    0.000000000000
 H    1.813541765306    5.993523842682    0.000000000000
 C   -0.687006458949    5.270057308062    0.000000000000
 H   -1.589433019777    4.651020687246    0.000000000000
 H   -0.683734430767    5.915852651003   -0.890136923045
 H   -0.683734430767    5.915852651003    0.890136923045
