19

 C    0.722064962466   -5.019089602338    0.000000000000
 C   -0.490175037534   -4.121999602338    0.000000000000
 N   -1.693105037534   -4.735619602338    0.000000000000
 H   -2.533005037534   -4.171559602338    0.000000000000
 H   -1.778485037534   -5.742569602338    0.000000000000
 O   -0.401955037534   -2.877759602338    0.000000000000
 H    1.624494962466   -4.400049602338    0.000000000000
 H    0.718794962466   -5.664889602338    0.890140000000
 H    0.718794962466   -5.664889602338   -0.890140000000
 K   -0.066195037534   -0.473899602338    0.000000000000
 O    0.445635193500    3.190528022081    0.000000000000
 C    0.533863123087    4.434763852637    0.000000000000
 N    1.736797612878    5.048383256887    0.000000000000
 H    2.576686066528    4.484322317071    0.000000000000
 H    1.822174518946    6.055329689608    0.000000000000
 C   -0.678373705309    5.331863154989    0.000000000000
 H   -1.580800266137    4.712826534173    0.000000000000
 H   -0.675101677128    5.977658497930   -0.890136923045
 H   -0.675101677128    5.977658497930    0.890136923045
