19

 C    0.696062483227   -5.205253289922    0.000000000000
 C   -0.516177516773   -4.308163289922    0.000000000000
 N   -1.719107516773   -4.921783289922    0.000000000000
 H   -2.559007516773   -4.357723289922    0.000000000000
 H   -1.804487516773   -5.928733289922    0.000000000000
 O   -0.427957516773   -3.063923289922    0.000000000000
 H    1.598492483227   -4.586213289922    0.000000000000
 H    0.692792483227   -5.851053289922    0.890140000000
 H    0.692792483227   -5.851053289922   -0.890140000000
 K   -0.092197516773   -0.660063289922    0.000000000000
 O    0.488798961698    3.499557256715    0.000000000000
 C    0.577026891285    4.743793087271    0.000000000000
 N    1.779961381076    5.357412491521    0.000000000000
 H    2.619849834726    4.793351551706    0.000000000000
 H    1.865338287144    6.364358924243    0.000000000000
 C   -0.635209937111    5.640892389624    0.000000000000
 H   -1.537636497939    5.021855768807    0.000000000000
 H   -0.631937908930    6.286687732564   -0.890136923045
 H   -0.631937908930    6.286687732564    0.890136923045
