19

 C    0.644057524749   -5.577580665091    0.000000000000
 C   -0.568182475251   -4.680490665091    0.000000000000
 N   -1.771112475251   -5.294110665091    0.000000000000
 H   -2.611012475251   -4.730050665091    0.000000000000
 H   -1.856492475251   -6.301060665091    0.000000000000
 O   -0.479962475251   -3.436250665091    0.000000000000
 H    1.546487524749   -4.958540665091    0.000000000000
 H    0.640787524749   -6.223380665091    0.890140000000
 H    0.640787524749   -6.223380665091   -0.890140000000
 K   -0.144202475251   -1.032390665091    0.000000000000
 O    0.575126498095    4.117615725983    0.000000000000
 C    0.663354427681    5.361851556540    0.000000000000
 N    1.866288917472    5.975470960790    0.000000000000
 H    2.706177371122    5.411410020974    0.000000000000
 H    1.951665823540    6.982417393511    0.000000000000
 C   -0.548882400715    6.258950858892    0.000000000000
 H   -1.451308961543    5.639914238076    0.000000000000
 H   -0.545610372533    6.904746201833   -0.890136923045
 H   -0.545610372533    6.904746201833    0.890136923045
