19

 C    0.628456037206   -5.689278877641    0.000000000000
 C   -0.583783962794   -4.792188877641    0.000000000000
 N   -1.786713962794   -5.405808877641    0.000000000000
 H   -2.626613962794   -4.841748877641    0.000000000000
 H   -1.872093962794   -6.412758877641    0.000000000000
 O   -0.495563962794   -3.547948877641    0.000000000000
 H    1.530886037206   -5.070238877641    0.000000000000
 H    0.625186037206   -6.335078877641    0.890140000000
 H    0.625186037206   -6.335078877641   -0.890140000000
 K   -0.159803962794   -1.144088877641    0.000000000000
 O    0.601024759014    4.303033266764    0.000000000000
 C    0.689252688600    5.547269097321    0.000000000000
 N    1.892187178391    6.160888501570    0.000000000000
 H    2.732075632041    5.596827561755    0.000000000000
 H    1.977564084459    7.167834934292    0.000000000000
 C   -0.522984139796    6.444368399673    0.000000000000
 H   -1.425410700624    5.825331778857    0.000000000000
 H   -0.519712111614    7.090163742613   -0.890136923045
 H   -0.519712111614    7.090163742613    0.890136923045
