19

 C    0.607654053814   -5.838209827709    0.000000000000
 C   -0.604585946186   -4.941119827709    0.000000000000
 N   -1.807515946186   -5.554739827709    0.000000000000
 H   -2.647415946186   -4.990679827709    0.000000000000
 H   -1.892895946186   -6.561689827709    0.000000000000
 O   -0.516365946186   -3.696879827709    0.000000000000
 H    1.510084053814   -5.219169827709    0.000000000000
 H    0.604384053814   -6.484009827709    0.890140000000
 H    0.604384053814   -6.484009827709   -0.890140000000
 K   -0.180605946186   -1.293019827709    0.000000000000
 O    0.635555773572    4.550256654472    0.000000000000
 C    0.723783703159    5.794492485028    0.000000000000
 N    1.926718192950    6.408111889278    0.000000000000
 H    2.766606646599    5.844050949462    0.000000000000
 H    2.012095099017    7.415058321999    0.000000000000
 C   -0.488453125237    6.691591787380    0.000000000000
 H   -1.390879686065    6.072555166564    0.000000000000
 H   -0.485181097056    7.337387130321   -0.890136923045
 H   -0.485181097056    7.337387130321    0.890136923045
