19

 C    0.602453557967   -5.875442565226    0.000000000000
 C   -0.609786442033   -4.978352565226    0.000000000000
 N   -1.812716442033   -5.591972565226    0.000000000000
 H   -2.652616442033   -5.027912565226    0.000000000000
 H   -1.898096442033   -6.598922565226    0.000000000000
 O   -0.521566442033   -3.734112565226    0.000000000000
 H    1.504883557967   -5.256402565226    0.000000000000
 H    0.599183557967   -6.521242565226    0.890140000000
 H    0.599183557967   -6.521242565226   -0.890140000000
 K   -0.185806442033   -1.330252565226    0.000000000000
 O    0.644188527212    4.612062501398    0.000000000000
 C    0.732416456798    5.856298331955    0.000000000000
 N    1.935350946589    6.469917736205    0.000000000000
 H    2.775239400239    5.905856796389    0.000000000000
 H    2.020727852657    7.476864168926    0.000000000000
 C   -0.479820371598    6.753397634307    0.000000000000
 H   -1.382246932426    6.134361013491    0.000000000000
 H   -0.476548343416    7.399192977247   -0.890136923045
 H   -0.476548343416    7.399192977247    0.890136923045
