19

 C    0.592052566271   -5.949908040259    0.000000000000
 C   -0.620187433729   -5.052818040259    0.000000000000
 N   -1.823117433729   -5.666438040259    0.000000000000
 H   -2.663017433729   -5.102378040259    0.000000000000
 H   -1.908497433729   -6.673388040259    0.000000000000
 O   -0.531967433729   -3.808578040259    0.000000000000
 H    1.494482566271   -5.330868040259    0.000000000000
 H    0.588782566271   -6.595708040259    0.890140000000
 H    0.588782566271   -6.595708040259   -0.890140000000
 K   -0.196207433729   -1.404718040259    0.000000000000
 O    0.661454034491    4.735674195252    0.000000000000
 C    0.749681964078    5.979910025809    0.000000000000
 N    1.952616453868    6.593529430058    0.000000000000
 H    2.792504907518    6.029468490243    0.000000000000
 H    2.037993359936    7.600475862780    0.000000000000
 C   -0.462554864318    6.877009328161    0.000000000000
 H   -1.364981425147    6.257972707345    0.000000000000
 H   -0.459282836137    7.522804671101   -0.890136923045
 H   -0.459282836137    7.522804671101    0.890136923045
