19

 C    0.576451078728   -6.061606252810    0.000000000000
 C   -0.635788921272   -5.164516252810    0.000000000000
 N   -1.838718921272   -5.778136252810    0.000000000000
 H   -2.678618921272   -5.214076252810    0.000000000000
 H   -1.924098921272   -6.785086252810    0.000000000000
 O   -0.547568921272   -3.920276252810    0.000000000000
 H    1.478881078728   -5.442566252810    0.000000000000
 H    0.573181078728   -6.707406252810    0.890140000000
 H    0.573181078728   -6.707406252810   -0.890140000000
 K   -0.211808921272   -1.516416252810    0.000000000000
 O    0.687352295410    4.921091736033    0.000000000000
 C    0.775580224997    6.165327566589    0.000000000000
 N    1.978514714787    6.778946970839    0.000000000000
 H    2.818403168437    6.214886031024    0.000000000000
 H    2.063891620855    7.785893403561    0.000000000000
 C   -0.436656603399    7.062426868941    0.000000000000
 H   -1.339083164228    6.443390248125    0.000000000000
 H   -0.433384575218    7.708222211882   -0.890136923045
 H   -0.433384575218    7.708222211882    0.890136923045
