19

 C    0.550448599489   -6.247769940394    0.000000000000
 C   -0.661791400511   -5.350679940394    0.000000000000
 N   -1.864721400511   -5.964299940394    0.000000000000
 H   -2.704621400511   -5.400239940394    0.000000000000
 H   -1.950101400511   -6.971249940394    0.000000000000
 O   -0.573571400511   -4.106439940394    0.000000000000
 H    1.452878599489   -5.628729940394    0.000000000000
 H    0.547178599489   -6.893569940394    0.890140000000
 H    0.547178599489   -6.893569940394   -0.890140000000
 K   -0.237811400511   -1.702579940394    0.000000000000
 O    0.730516063608    5.230120970667    0.000000000000
 C    0.818743993195    6.474356801224    0.000000000000
 N    2.021678482985    7.087976205473    0.000000000000
 H    2.861566936635    6.523915265658    0.000000000000
 H    2.107055389053    8.094922638195    0.000000000000
 C   -0.393492835201    7.371456103576    0.000000000000
 H   -1.295919396030    6.752419482760    0.000000000000
 H   -0.390220807020    8.017251446516   -0.890136923045
 H   -0.390220807020    8.017251446516    0.890136923045
