19

 C    0.534847111945   -6.359468152945    0.000000000000
 C   -0.677392888055   -5.462378152945    0.000000000000
 N   -1.880322888055   -6.075998152945    0.000000000000
 H   -2.720222888055   -5.511938152945    0.000000000000
 H   -1.965702888055   -7.082948152945    0.000000000000
 O   -0.589172888055   -4.218138152945    0.000000000000
 H    1.437277111945   -5.740428152945    0.000000000000
 H    0.531577111945   -7.005268152945    0.890140000000
 H    0.531577111945   -7.005268152945   -0.890140000000
 K   -0.253412888055   -1.814278152945    0.000000000000
 O    0.756414324527    5.415538511448    0.000000000000
 C    0.844642254114    6.659774342004    0.000000000000
 N    2.047576743904    7.273393746254    0.000000000000
 H    2.887465197554    6.709332806438    0.000000000000
 H    2.132953649972    8.280340178975    0.000000000000
 C   -0.367594574282    7.556873644356    0.000000000000
 H   -1.270021135111    6.937837023540    0.000000000000
 H   -0.364322546101    8.202668987297   -0.890136923045
 H   -0.364322546101    8.202668987297    0.890136923045
