19

 C    0.482842153467   -6.731795528114    0.000000000000
 C   -0.729397846533   -5.834705528114    0.000000000000
 N   -1.932327846533   -6.448325528114    0.000000000000
 H   -2.772227846533   -5.884265528114    0.000000000000
 H   -2.017707846533   -7.455275528114    0.000000000000
 O   -0.641177846533   -4.590465528114    0.000000000000
 H    1.385272153467   -6.112755528114    0.000000000000
 H    0.479572153467   -7.377595528114    0.890140000000
 H    0.479572153467   -7.377595528114   -0.890140000000
 K   -0.305417846533   -2.186605528114    0.000000000000
 O    0.842741860923    6.033596980716    0.000000000000
 C    0.930969790510    7.277832811273    0.000000000000
 N    2.133904280301    7.891452215523    0.000000000000
 H    2.973792733951    7.327391275707    0.000000000000
 H    2.219281186369    8.898398648244    0.000000000000
 C   -0.281267037886    8.174932113625    0.000000000000
 H   -1.183693598714    7.555895492809    0.000000000000
 H   -0.277995009705    8.820727456565   -0.890136923045
 H   -0.277995009705    8.820727456565    0.890136923045
