19

 C    0.477641657620   -6.769028265631    0.000000000000
 C   -0.734598342380   -5.871938265631    0.000000000000
 N   -1.937528342380   -6.485558265631    0.000000000000
 H   -2.777428342380   -5.921498265631    0.000000000000
 H   -2.022908342380   -7.492508265631    0.000000000000
 O   -0.646378342380   -4.627698265631    0.000000000000
 H    1.380071657620   -6.149988265631    0.000000000000
 H    0.474371657620   -7.414828265631    0.890140000000
 H    0.474371657620   -7.414828265631   -0.890140000000
 K   -0.310618342380   -2.223838265631    0.000000000000
 O    0.851374614563    6.095402827643    0.000000000000
 C    0.939602544150    7.339638658200    0.000000000000
 N    2.142537033940    7.953258062449    0.000000000000
 H    2.982425487590    7.389197122634    0.000000000000
 H    2.227913940008    8.960204495171    0.000000000000
 C   -0.272634284246    8.236737960552    0.000000000000
 H   -1.175060845075    7.617701339736    0.000000000000
 H   -0.269362256065    8.882533303492   -0.890136923045
 H   -0.269362256065    8.882533303492    0.890136923045
