19

 C    0.446438682533   -6.992424690732    0.000000000000
 C   -0.765801317467   -6.095334690732    0.000000000000
 N   -1.968731317467   -6.708954690732    0.000000000000
 H   -2.808631317467   -6.144894690732    0.000000000000
 H   -2.054111317467   -7.715904690732    0.000000000000
 O   -0.677581317467   -4.851094690732    0.000000000000
 H    1.348868682533   -6.373384690732    0.000000000000
 H    0.443168682533   -7.638224690732    0.890140000000
 H    0.443168682533   -7.638224690732   -0.890140000000
 K   -0.341821317467   -2.447234690732    0.000000000000
 O    0.903171136401    6.466237909204    0.000000000000
 C    0.991399065987    7.710473739761    0.000000000000
 N    2.194333555778    8.324093144011    0.000000000000
 H    3.034222009428    7.760032204195    0.000000000000
 H    2.279710461846    9.331039576732    0.000000000000
 C   -0.220837762409    8.607573042113    0.000000000000
 H   -1.123264323237    7.988536421297    0.000000000000
 H   -0.217565734227    9.253368385053   -0.890136923045
 H   -0.217565734227    9.253368385053    0.890136923045
