19

 C    0.441238186685   -7.029657428249    0.000000000000
 C   -0.771001813315   -6.132567428249    0.000000000000
 N   -1.973931813315   -6.746187428249    0.000000000000
 H   -2.813831813315   -6.182127428249    0.000000000000
 H   -2.059311813315   -7.753137428249    0.000000000000
 O   -0.682781813315   -4.888327428249    0.000000000000
 H    1.343668186685   -6.410617428249    0.000000000000
 H    0.437968186685   -7.675457428249    0.890140000000
 H    0.437968186685   -7.675457428249   -0.890140000000
 K   -0.347021813315   -2.484467428249    0.000000000000
 O    0.911803890040    6.528043756131    0.000000000000
 C    1.000031819627    7.772279586688    0.000000000000
 N    2.202966309418    8.385898990937    0.000000000000
 H    3.042854763068    7.821838051122    0.000000000000
 H    2.288343215486    9.392845423659    0.000000000000
 C   -0.212205008769    8.669378889040    0.000000000000
 H   -1.114631569597    8.050342268224    0.000000000000
 H   -0.208932980588    9.315174231980   -0.890136923045
 H   -0.208932980588    9.315174231980    0.890136923045
