19

 C    0.425636699142   -7.141355640799    0.000000000000
 C   -0.786603300858   -6.244265640799    0.000000000000
 N   -1.989533300858   -6.857885640799    0.000000000000
 H   -2.829433300858   -6.293825640799    0.000000000000
 H   -2.074913300858   -7.864835640799    0.000000000000
 O   -0.698383300858   -5.000025640799    0.000000000000
 H    1.328066699142   -6.522315640799    0.000000000000
 H    0.422366699142   -7.787155640799    0.890140000000
 H    0.422366699142   -7.787155640799   -0.890140000000
 K   -0.362623300858   -2.596165640799    0.000000000000
 O    0.937702150959    6.713461296912    0.000000000000
 C    1.025930080546    7.957697127468    0.000000000000
 N    2.228864570337    8.571316531718    0.000000000000
 H    3.068753023987    8.007255591903    0.000000000000
 H    2.314241476405    9.578262964440    0.000000000000
 C   -0.186306747850    8.854796429820    0.000000000000
 H   -1.088733308678    8.235759809004    0.000000000000
 H   -0.183034719669    9.500591772761   -0.890136923045
 H   -0.183034719669    9.500591772761    0.890136923045
