19

 C    0.415235707446   -7.215821115833    0.000000000000
 C   -0.797004292554   -6.318731115833    0.000000000000
 N   -1.999934292554   -6.932351115833    0.000000000000
 H   -2.839834292554   -6.368291115833    0.000000000000
 H   -2.085314292554   -7.939301115833    0.000000000000
 O   -0.708784292554   -5.074491115833    0.000000000000
 H    1.317665707446   -6.596781115833    0.000000000000
 H    0.411965707446   -7.861621115833    0.890140000000
 H    0.411965707446   -7.861621115833   -0.890140000000
 K   -0.373024292554   -2.670631115833    0.000000000000
 O    0.954967658238    6.837072990765    0.000000000000
 C    1.043195587825    8.081308821322    0.000000000000
 N    2.246130077616    8.694928225572    0.000000000000
 H    3.086018531266    8.130867285756    0.000000000000
 H    2.331506983684    9.701874658293    0.000000000000
 C   -0.169041240571    8.978408123674    0.000000000000
 H   -1.071467801399    8.359371502858    0.000000000000
 H   -0.165769212390    9.624203466615   -0.890136923045
 H   -0.165769212390    9.624203466615    0.890136923045
