16

 N   -3.212199281265    0.703698299060   -0.022401672728
 C   -1.980073548998    0.073408019052   -0.021446712420
 N   -1.709932612872   -1.247477455916   -0.024910901367
 C   -0.381803444409   -1.465671348666   -0.009343472704
 H   -0.067995161439   -2.512350081156   -0.005963902013
 N    0.630545998632   -0.557690391525    0.004627797571
 C    0.318329254725    0.753130691724   -0.000018606329
 N    1.325956209527    1.677629329029   -0.041840443260
 H    2.257407746914    1.347099220277    0.180617490873
 H    1.093218703500    2.637600084068    0.182969802180
 C   -1.047171586149    1.129824545591   -0.008789694044
 N   -1.670700897340    2.368790246221    0.001088514974
 C   -2.970626384497    2.060710857860   -0.007366338184
 H   -3.780679913284    2.787291658962   -0.003318200321
 H   -4.115988958435    0.243441175226   -0.030004728661
RB    1.675964807642   -0.899680779403    0.016547880065
