16

 N   -3.285572825042    0.727701164208   -0.023238293121
 C   -2.053447092775    0.097410884200   -0.022283332813
 N   -1.783306156649   -1.223474590768   -0.025747521760
 C   -0.455176988186   -1.441668483518   -0.010180093097
 H   -0.141368705216   -2.488347216008   -0.006800522406
 N    0.557172454855   -0.533687526377    0.003791177178
 C    0.244955710948    0.777133556872   -0.000855226722
 N    1.252582665750    1.701632194177   -0.042677063653
 H    2.184034203137    1.371102085425    0.179780870480
 H    1.019845159723    2.661602949216    0.182133181787
 C   -1.120545129926    1.153827410739   -0.009626314437
 N   -1.744074441117    2.392793111369    0.000251894581
 C   -3.043999928274    2.084713723008   -0.008202958577
 H   -3.854053457061    2.811294524110   -0.004154820714
 H   -4.189362502212    0.267444040374   -0.030841349054
RB    1.792667410958   -0.937857984778    0.017878547399
