16

 N   -3.358946368819    0.751704029357   -0.024074913514
 C   -2.126820636552    0.121413749349   -0.023119953206
 N   -1.856679700426   -1.199471725619   -0.026584142153
 C   -0.528550531963   -1.417665618369   -0.011016713490
 H   -0.214742248993   -2.464344350859   -0.007637142799
 N    0.483798911078   -0.509684661228    0.002954556785
 C    0.171582167171    0.801136422021   -0.001691847115
 N    1.179209121973    1.725635059326   -0.043513684046
 H    2.110660659360    1.395104950574    0.178944250087
 H    0.946471615946    2.685605814365    0.181296561394
 C   -1.193918673703    1.177830275888   -0.010462934830
 N   -1.817447984894    2.416795976518   -0.000584725812
 C   -3.117373472051    2.108716588157   -0.009039578970
 H   -3.927427000838    2.835297389259   -0.004991441107
 H   -4.262736045989    0.291446905523   -0.031677969447
RB    1.909370014274   -0.976035190153    0.019209214732
