16

 N   -3.542380228261    0.811711192228   -0.026166464496
 C   -2.310254495994    0.181420912220   -0.025211504188
 N   -2.040113559868   -1.139464562748   -0.028675693135
 C   -0.711984391405   -1.357658455498   -0.013108264472
 H   -0.398176108435   -2.404337187988   -0.009728693781
 N    0.300365051636   -0.449677498357    0.000863005803
 C   -0.011851692271    0.861143584892   -0.003783398097
 N    0.995775262531    1.785642222197   -0.045605235028
 H    1.927226799918    1.455112113445    0.176852699105
 H    0.763037756504    2.745612977236    0.179205010412
 C   -1.377352533145    1.237837438759   -0.012554485812
 N   -2.000881844336    2.476803139389   -0.002676276794
 C   -3.300807331493    2.168723751028   -0.011131129952
 H   -4.110860860280    2.895304552130   -0.007082992089
 H   -4.446169905431    0.351454068394   -0.033769520429
RB    2.201126522563   -1.071478203590    0.022535883065
