16

 N   -3.762500859592    0.883719787673   -0.028676325675
 C   -2.530375127325    0.253429507665   -0.027721365367
 N   -2.260234191199   -1.067455967303   -0.031185554314
 C   -0.932105022736   -1.285649860053   -0.015618125651
 H   -0.618296739766   -2.332328592543   -0.012238554960
 N    0.080244420305   -0.377668902912   -0.001646855376
 C   -0.231972323602    0.933152180337   -0.006293259276
 N    0.775654631200    1.857650817642   -0.048115096207
 H    1.707106168587    1.527120708890    0.174342837926
 H    0.542917125173    2.817621572681    0.176695149233
 C   -1.597473164476    1.309846034204   -0.015064346991
 N   -2.221002475667    2.548811734834   -0.005186137973
 C   -3.520927962824    2.240732346473   -0.013640991131
 H   -4.330981491611    2.967313147575   -0.009592853268
 H   -4.666290536762    0.423462663839   -0.036279381608
RB    2.551234332511   -1.186009819715    0.026527885065
