16

 N   -4.019308262812    0.967729815692   -0.031604497050
 C   -2.787182530545    0.337439535684   -0.030649536742
 N   -2.517041594419   -0.983445939284   -0.034113725689
 C   -1.188912425956   -1.201639832034   -0.018546297026
 H   -0.875104142986   -2.248318564524   -0.015166726335
 N   -0.176562982915   -0.293658874893   -0.004575026751
 C   -0.488779726822    1.017162208356   -0.009221430651
 N    0.518847227980    1.941660845661   -0.051043267582
 H    1.450298765367    1.611130736909    0.171414666551
 H    0.286109721953    2.901631600700    0.173766977858
 C   -1.854280567696    1.393856062223   -0.017992518366
 N   -2.477809878887    2.632821762853   -0.008114309348
 C   -3.777735366044    2.324742374492   -0.016569162506
 H   -4.587788894831    3.051323175594   -0.012521024643
 H   -4.923097939982    0.507472691858   -0.039207552983
RB    2.959693444116   -1.319630038527    0.031185220732
