16

 N   -4.202742122254    1.027736978563   -0.033696048032
 C   -2.970616389987    0.397446698555   -0.032741087724
 N   -2.700475453861   -0.923438776413   -0.036205276671
 C   -1.372346285398   -1.141632669163   -0.020637848008
 H   -1.058538002428   -2.188311401653   -0.017258277317
 N   -0.359996842357   -0.233651712022   -0.006666577733
 C   -0.672213586264    1.077169371227   -0.011312981633
 N    0.335413368538    2.001668008532   -0.053134818564
 H    1.266864905925    1.671137899780    0.169323115569
 H    0.102675862511    2.961638763571    0.171675426876
 C   -2.037714427138    1.453863225094   -0.020084069348
 N   -2.661243738329    2.692828925724   -0.010205860330
 C   -3.961169225486    2.384749537363   -0.018660713488
 H   -4.771222754273    3.111330338465   -0.014612575625
 H   -5.106531799424    0.567479854729   -0.041299103965
RB    3.251449952405   -1.415073051964    0.034511889065
