16

 N   -4.276115666031    1.051739843712   -0.034532668425
 C   -3.043989933764    0.421449563704   -0.033577708117
 N   -2.773848997638   -0.899435911264   -0.037041897064
 C   -1.445719829175   -1.117629804014   -0.021474468401
 H   -1.131911546205   -2.164308536504   -0.018094897710
 N   -0.433370386134   -0.209648846873   -0.007503198126
 C   -0.745587130041    1.101172236376   -0.012149602026
 N    0.262039824761    2.025670873681   -0.053971438957
 H    1.193491362148    1.695140764929    0.168486495176
 H    0.029302318734    2.985641628720    0.170838806483
 C   -2.111087970915    1.477866090243   -0.020920689741
 N   -2.734617282106    2.716831790873   -0.011042480723
 C   -4.034542769263    2.408752402512   -0.019497333881
 H   -4.844596298050    3.135333203614   -0.015449196018
 H   -5.179905343201    0.591482719878   -0.042135724358
RB    3.368152555721   -1.453250257339    0.035842556399
