16

 N   -4.312802437920    1.063741276286   -0.034950978621
 C   -3.080676705653    0.433450996278   -0.033996018313
 N   -2.810535769527   -0.887434478690   -0.037460207260
 C   -1.482406601064   -1.105628371440   -0.021892778597
 H   -1.168598318094   -2.152307103930   -0.018513207906
 N   -0.470057158023   -0.197647414299   -0.007921508322
 C   -0.782273901930    1.113173668950   -0.012567912222
 N    0.225353052872    2.037672306255   -0.054389749153
 H    1.156804590259    1.707142197503    0.168068184980
 H   -0.007384453155    2.997643061294    0.170420496287
 C   -2.147774742804    1.489867522817   -0.021338999937
 N   -2.771304053995    2.728833223447   -0.011460790919
 C   -4.071229541152    2.420753835086   -0.019915644077
 H   -4.881283069939    3.147334636188   -0.015867506214
 H   -5.216592115090    0.603484152452   -0.042554034554
RB    3.426503857379   -1.472338860026    0.036507890066
