16

 N   -4.496236297362    1.123748439157   -0.037042529604
 C   -3.264110565095    0.493458159149   -0.036087569296
 N   -2.993969628969   -0.827427315819   -0.039551758243
 C   -1.665840460506   -1.045621208569   -0.023984329580
 H   -1.352032177536   -2.092299941059   -0.020604758889
 N   -0.653491017465   -0.137640251428   -0.010013059305
 C   -0.965707761372    1.173180831821   -0.014659463205
 N    0.041919193430    2.097679469126   -0.056481300136
 H    0.973370730817    1.767149360374    0.165976633997
 H   -0.190818312597    3.057650224165    0.168328945304
 C   -2.331208602246    1.549874685688   -0.023430550920
 N   -2.954737913437    2.788840386318   -0.013552341902
 C   -4.254663400594    2.480760997957   -0.022007195060
 H   -5.064716929381    3.207341799059   -0.017959057197
 H   -5.400025974532    0.663491315323   -0.044645585537
RB    3.718260365668   -1.567781873464    0.039834558399
