16

 N   -4.569609841139    1.147751304306   -0.037879149996
 C   -3.337484108872    0.517461024298   -0.036924189688
 N   -3.067343172746   -0.803424450670   -0.040388378635
 C   -1.739214004283   -1.021618343420   -0.024820949972
 H   -1.425405721313   -2.068297075910   -0.021441379281
 N   -0.726864561242   -0.113637386279   -0.010849679697
 C   -1.039081305149    1.197183696970   -0.015496083597
 N   -0.031454350347    2.121682334275   -0.057317920528
 H    0.899997187040    1.791152225523    0.165140013605
 H   -0.264191856374    3.081653089314    0.167492324912
 C   -2.404582146023    1.573877550837   -0.024267171312
 N   -3.028111457214    2.812843251467   -0.014388962294
 C   -4.328036944371    2.504763863106   -0.022843815452
 H   -5.138090473158    3.231344664208   -0.018795677589
 H   -5.473399518309    0.687494180472   -0.045482205929
RB    3.834962968984   -1.605959078838    0.041165225732
