16

 N   -4.789730472470    1.219759899751   -0.040389011175
 C   -3.557604740203    0.589469619743   -0.039434050867
 N   -3.287463804077   -0.731415855225   -0.042898239814
 C   -1.959334635614   -0.949609747975   -0.027330811151
 H   -1.645526352644   -1.996288480465   -0.023951240460
 N   -0.946985192573   -0.041628790834   -0.013359540876
 C   -1.259201936480    1.269192292415   -0.018005944776
 N   -0.251574981678    2.193690929720   -0.059827781707
 H    0.679876555709    1.863160820968    0.162630152426
 H   -0.484312487705    3.153661684759    0.164982463733
 C   -2.624702777354    1.645886146282   -0.026777032491
 N   -3.248232088545    2.884851846912   -0.016898823473
 C   -4.548157575702    2.576772458551   -0.025353676631
 H   -5.358211104489    3.303353259653   -0.021305538768
 H   -5.693520149640    0.759502775917   -0.047992067108
RB    4.185070778931   -1.720490694963    0.045157227732
