16

 N   -4.936477560024    1.267765630048   -0.042062251961
 C   -3.704351827757    0.637475350040   -0.041107291653
 N   -3.434210891631   -0.683410124928   -0.044571480600
 C   -2.106081723168   -0.901604017678   -0.029004051937
 H   -1.792273440198   -1.948282750168   -0.025624481246
 N   -1.093732280127    0.006376939463   -0.015032781662
 C   -1.405949024034    1.317198022712   -0.019679185562
 N   -0.398322069232    2.241696660017   -0.061501022493
 H    0.533129468155    1.911166551265    0.160956911640
 H   -0.631059575259    3.201667415056    0.163309222947
 C   -2.771449864908    1.693891876579   -0.028450273277
 N   -3.394979176099    2.932857577209   -0.018572064259
 C   -4.694904663256    2.624778188848   -0.027026917417
 H   -5.504958192043    3.351358989950   -0.022978779554
 H   -5.840267237194    0.807508506214   -0.049665307894
RB    4.418475985563   -1.796845105713    0.047818562399
