16

 N   -4.973164331913    1.279767062622   -0.042480562157
 C   -3.741038599646    0.649476782614   -0.041525601849
 N   -3.470897663520   -0.671408692354   -0.044989790796
 C   -2.142768495057   -0.889602585104   -0.029422362133
 H   -1.828960212087   -1.936281317594   -0.026042791442
 N   -1.130419052016    0.018378372037   -0.015451091858
 C   -1.442635795923    1.329199455286   -0.020097495758
 N   -0.435008841121    2.253698092591   -0.061919332689
 H    0.496442696266    1.923167983839    0.160538601444
 H   -0.667746347148    3.213668847630    0.162890912751
 C   -2.808136636797    1.705893309153   -0.028868583473
 N   -3.431665947988    2.944859009783   -0.018990374455
 C   -4.731591435145    2.636779621422   -0.027445227613
 H   -5.541644963932    3.363360422524   -0.023397089750
 H   -5.876954009083    0.819509938788   -0.050083618090
RB    4.476827287221   -1.815933708400    0.048483896066
