16

 N   -5.046537875690    1.303769927770   -0.043317182550
 C   -3.814412143423    0.673479647762   -0.042362222242
 N   -3.544271207297   -0.647405827206   -0.045826411189
 C   -2.216142038834   -0.865599719956   -0.030258982526
 H   -1.902333755864   -1.912278452446   -0.026879411835
 N   -1.203792595793    0.042381237185   -0.016287712251
 C   -1.516009339700    1.353202320434   -0.020934116151
 N   -0.508382384898    2.277700957739   -0.062755953082
 H    0.423069152489    1.947170848987    0.159701981051
 H   -0.741119890925    3.237671712778    0.162054292358
 C   -2.881510180574    1.729896174301   -0.029705203866
 N   -3.505039491765    2.968861874931   -0.019826994848
 C   -4.804964978922    2.660782486570   -0.028281848006
 H   -5.615018507709    3.387363287672   -0.024233710143
 H   -5.950327552860    0.843512803936   -0.050920238483
RB    4.593529890536   -1.854110913775    0.049814563399
