16

 N   -5.119911419467    1.327772792919   -0.044153802943
 C   -3.887785687200    0.697482512911   -0.043198842635
 N   -3.617644751074   -0.623402962057   -0.046663031582
 C   -2.289515582611   -0.841596854807   -0.031095602919
 H   -1.975707299641   -1.888275587297   -0.027716032228
 N   -1.277166139570    0.066384102334   -0.017124332644
 C   -1.589382883477    1.377205185583   -0.021770736544
 N   -0.581755928675    2.301703822888   -0.063592573475
 H    0.349695608712    1.971173714136    0.158865360658
 H   -0.814493434702    3.261674577927    0.161217671965
 C   -2.954883724351    1.753899039450   -0.030541824259
 N   -3.578413035542    2.992864740080   -0.020663615241
 C   -4.878338522699    2.684785351719   -0.029118468399
 H   -5.688392051486    3.411366152821   -0.025070330536
 H   -6.023701096637    0.867515669085   -0.051756858876
RB    4.710232493852   -1.892288119150    0.051145230732
