16

 N   -5.156598191355    1.339774225493   -0.044572113140
 C   -3.924472459088    0.709483945485   -0.043617152832
 N   -3.654331522962   -0.611401529483   -0.047081341779
 C   -2.326202354499   -0.829595422233   -0.031513913116
 H   -2.012394071529   -1.876274154723   -0.028134342425
 N   -1.313852911458    0.078385534908   -0.017542642841
 C   -1.626069655365    1.389206618157   -0.022189046741
 N   -0.618442700563    2.313705255462   -0.064010883672
 H    0.313008836824    1.983175146710    0.158447050461
 H   -0.851180206590    3.273676010501    0.160799361768
 C   -2.991570496239    1.765900472024   -0.030960134456
 N   -3.615099807430    3.004866172654   -0.021081925438
 C   -4.915025294587    2.696786784293   -0.029536778596
 H   -5.725078823374    3.423367585395   -0.025488640733
 H   -6.060387868525    0.879517101659   -0.052175169073
RB    4.768583795510   -1.911376721837    0.051810564399
