16

 N   -5.266658507021    1.375778523215   -0.045827043729
 C   -4.034532774754    0.745488243207   -0.044872083421
 N   -3.764391838628   -0.575397231761   -0.048336272368
 C   -2.436262670165   -0.793591124511   -0.032768843705
 H   -2.122454387195   -1.840269857001   -0.029389273014
 N   -1.423913227124    0.114389832630   -0.018797573430
 C   -1.736129971031    1.425210915879   -0.023443977330
 N   -0.728503016229    2.349709553184   -0.065265814261
 H    0.202948521158    2.019179444432    0.157192119872
 H   -0.961240522256    3.309680308223    0.159544431179
 C   -3.101630811905    1.801904769746   -0.032215065045
 N   -3.725160123096    3.040870470376   -0.022336856027
 C   -5.025085610253    2.732791082015   -0.030791709185
 H   -5.835139139040    3.459371883117   -0.026743571322
 H   -6.170448184191    0.915521399381   -0.053430099662
RB    4.943637700484   -1.968642529900    0.053806565399
