16

 N   -5.303345278909    1.387779955790   -0.046245353925
 C   -4.071219546642    0.757489675782   -0.045290393617
 N   -3.801078610516   -0.563395799186   -0.048754582564
 C   -2.472949442053   -0.781589691936   -0.033187153901
 H   -2.159141159083   -1.828268424426   -0.029807583210
 N   -1.460599999012    0.126391265205   -0.019215883626
 C   -1.772816742919    1.437212348454   -0.023862287526
 N   -0.765189788117    2.361710985759   -0.065684124457
 H    0.166261749270    2.031180877007    0.156773809676
 H   -0.997927294144    3.321681740798    0.159126120983
 C   -3.138317583793    1.813906202321   -0.032633375241
 N   -3.761846894984    3.052871902951   -0.022755166223
 C   -5.061772382141    2.744792514590   -0.031210019381
 H   -5.871825910928    3.471373315692   -0.027161881518
 H   -6.207134956079    0.927522831956   -0.053848409858
RB    5.001989002142   -1.987731132587    0.054471899066
