16

 N   -5.413405594575    1.423784253512   -0.047500284515
 C   -4.181279862308    0.793493973504   -0.046545324207
 N   -3.911138926182   -0.527391501464   -0.050009513154
 C   -2.583009757719   -0.745585394214   -0.034442084491
 H   -2.269201474749   -1.792264126704   -0.031062513800
 N   -1.570660314678    0.162395562927   -0.020470814216
 C   -1.882877058585    1.473216646176   -0.025117218116
 N   -0.875250103783    2.397715283481   -0.066939055047
 H    0.056201433604    2.067185174729    0.155518879086
 H   -1.107987609810    3.357686038520    0.157871190393
 C   -3.248377899459    1.849910500043   -0.033888305831
 N   -3.871907210650    3.088876200673   -0.024010096813
 C   -5.171832697807    2.780796812312   -0.032464949971
 H   -5.981886226594    3.507377613414   -0.028416812108
 H   -6.317195271745    0.963527129678   -0.055103340448
RB    5.177042907115   -2.044996940649    0.056467900066
