16

 N   -5.486779138352    1.447787118661   -0.048336904908
 C   -4.254653406085    0.817496838653   -0.047381944600
 N   -3.984512469959   -0.503388636315   -0.050846133547
 C   -2.656383301496   -0.721582529065   -0.035278704884
 H   -2.342575018526   -1.768261261555   -0.031899134193
 N   -1.644033858455    0.186398428076   -0.021307434609
 C   -1.956250602362    1.497219511325   -0.025953838509
 N   -0.948623647560    2.421718148630   -0.067775675440
 H   -0.017172110173    2.091188039878    0.154682258693
 H   -1.181361153587    3.381688903669    0.157034570000
 C   -3.321751443236    1.873913365192   -0.034724926224
 N   -3.945280754427    3.112879065822   -0.024846717206
 C   -5.245206241584    2.804799677461   -0.033301570364
 H   -6.055259770371    3.531380478563   -0.029253432501
 H   -6.390568815522    0.987529994827   -0.055939960841
RB    5.293745510431   -2.083174146024    0.057798567399
