16

 N   -5.706899769683    1.519795714106   -0.050846766086
 C   -4.474774037416    0.889505434098   -0.049891805778
 N   -4.204633101290   -0.431380040870   -0.053355994725
 C   -2.876503932827   -0.649573933620   -0.037788566062
 H   -2.562695649857   -1.696252666110   -0.034408995371
 N   -1.864154489786    0.258407023521   -0.023817295787
 C   -2.176371233693    1.569228106770   -0.028463699687
 N   -1.168744278891    2.493726744075   -0.070285536618
 H   -0.237292741504    2.163196635323    0.152172397515
 H   -1.401481784918    3.453697499114    0.154524708822
 C   -3.541872074567    1.945921960637   -0.037234787402
 N   -4.165401385758    3.184887661267   -0.027356578384
 C   -5.465326872915    2.876808272906   -0.035811431542
 H   -6.275380401702    3.603389074008   -0.031763293679
 H   -6.610689446853    1.059538590272   -0.058449822019
RB    5.643853320378   -2.197705762149    0.061790569399
