16

 N   -5.853646857237    1.567801444403   -0.052520006872
 C   -4.621521124970    0.937511164395   -0.051565046564
 N   -4.351380188844   -0.383374310573   -0.055029235511
 C   -3.023251020381   -0.601568203323   -0.039461806848
 H   -2.709442737411   -1.648246935813   -0.036082236157
 N   -2.010901577340    0.306412753818   -0.025490536573
 C   -2.323118321247    1.617233837067   -0.030136940473
 N   -1.315491366445    2.541732474372   -0.071958777404
 H   -0.384039829058    2.211202365620    0.150499156729
 H   -1.548228872472    3.501703229411    0.152851468036
 C   -3.688619162121    1.993927690934   -0.038908028188
 N   -4.312148473312    3.232893391564   -0.029029819170
 C   -5.612073960469    2.924814003203   -0.037484672328
 H   -6.422127489256    3.651394804305   -0.033436534465
 H   -6.757436534407    1.107544320569   -0.060123062805
RB    5.877258527010   -2.274060172899    0.064451904066
