16

 N   -5.927020401014    1.591804309551   -0.053356627265
 C   -4.694894668747    0.961514029543   -0.052401666957
 N   -4.424753732621   -0.359371445425   -0.055865855904
 C   -3.096624564158   -0.577565338175   -0.040298427241
 H   -2.782816281188   -1.624244070665   -0.036918856550
 N   -2.084275121117    0.330415618966   -0.026327156966
 C   -2.396491865024    1.641236702215   -0.030973560866
 N   -1.388864910222    2.565735339520   -0.072795397797
 H   -0.457413372835    2.235205230768    0.149662536336
 H   -1.621602416249    3.525706094559    0.152014847643
 C   -3.761992705898    2.017930556082   -0.039744648581
 N   -4.385522017089    3.256896256712   -0.029866439563
 C   -5.685447504246    2.948816868351   -0.038321292721
 H   -6.495501033033    3.675397669453   -0.034273154858
 H   -6.830810078184    1.131547185717   -0.060959683198
RB    5.993961130326   -2.312237378274    0.065782571399
