16

 N   -6.037080716680    1.627808607274   -0.054611557854
 C   -4.804954984413    0.997518327266   -0.053656597546
 N   -4.534814048287   -0.323367147702   -0.057120786493
 C   -3.206684879824   -0.541561040452   -0.041553357830
 H   -2.892876596854   -1.588239772942   -0.038173787139
 N   -2.194335436783    0.366419916689   -0.027582087555
 C   -2.506552180690    1.677240999938   -0.032228491455
 N   -1.498925225888    2.601739637243   -0.074050328386
 H   -0.567473688501    2.271209528491    0.148407605747
 H   -1.731662731915    3.561710392282    0.150759917054
 C   -3.872053021564    2.053934853805   -0.040999579170
 N   -4.495582332755    3.292900554435   -0.031121370152
 C   -5.795507819912    2.984821166074   -0.039576223310
 H   -6.605561348699    3.711401967176   -0.035528085447
 H   -6.940870393850    1.167551483440   -0.062214613787
RB    6.169015035299   -2.369503186336    0.067778572399
