16

 N   -6.147141032345    1.663812904996   -0.055866488443
 C   -4.915015300078    1.033522624988   -0.054911528135
 N   -4.644874363952   -0.287362849980   -0.058375717082
 C   -3.316745195489   -0.505556742730   -0.042808288419
 H   -3.002936912519   -1.552235475220   -0.039428717728
 N   -2.304395752448    0.402424214411   -0.028837018144
 C   -2.616612496355    1.713245297660   -0.033483422044
 N   -1.608985541553    2.637743934965   -0.075305258975
 H   -0.677534004166    2.307213826213    0.147152675158
 H   -1.841723047580    3.597714690004    0.149504986465
 C   -3.982113337229    2.089939151527   -0.042254509759
 N   -4.605642648420    3.328904852157   -0.032376300741
 C   -5.905568135577    3.020825463796   -0.040831153899
 H   -6.715621664364    3.747406264898   -0.036783016036
 H   -7.050930709515    1.203555781162   -0.063469544376
RB    6.344068940273   -2.426768994398    0.069774573399
