16

 N   -6.330574891788    1.723820067867   -0.057958039426
 C   -5.098449159521    1.093529787859   -0.057003079118
 N   -4.828308223395   -0.227355687109   -0.060467268065
 C   -3.500179054932   -0.445549579859   -0.044899839402
 H   -3.186370771962   -1.492228312349   -0.041520268711
 N   -2.487829611891    0.462431377282   -0.030928569127
 C   -2.800046355798    1.773252460531   -0.035574973027
 N   -1.792419400996    2.697751097836   -0.077396809958
 H   -0.860967863609    2.367220989084    0.145061124175
 H   -2.025156907023    3.657721852875    0.147413435482
 C   -4.165547196672    2.149946314398   -0.044346060742
 N   -4.789076507863    3.388912015028   -0.034467851724
 C   -6.089001995020    3.080832626667   -0.042922704882
 H   -6.899055523807    3.807413427769   -0.038874567019
 H   -7.234364568958    1.263562944033   -0.065561095359
RB    6.635825448562   -2.522212007835    0.073101241733
