16

 N   -6.403948435565    1.747822933016   -0.058794659819
 C   -5.171822703298    1.117532653008   -0.057839699511
 N   -4.901681767172   -0.203352821960   -0.061303888458
 C   -3.573552598709   -0.421546714710   -0.045736459795
 H   -3.259744315739   -1.468225447200   -0.042356889104
 N   -2.561203155668    0.486434242431   -0.031765189520
 C   -2.873419899575    1.797255325680   -0.036411593420
 N   -1.865792944773    2.721753962985   -0.078233430351
 H   -0.934341407386    2.391223854233    0.144224503782
 H   -2.098530450800    3.681724718024    0.146576815089
 C   -4.238920740449    2.173949179547   -0.045182681135
 N   -4.862450051640    3.412914880177   -0.035304472117
 C   -6.162375538797    3.104835491816   -0.043759325275
 H   -6.972429067584    3.831416292918   -0.039711187412
 H   -7.307738112735    1.287565809182   -0.066397715752
RB    6.752528051878   -2.560389213210    0.074431909066
