10

 C    0.467397280219    1.497238307400    0.364116702999
 H    0.860884280219    2.510367307400    0.364336702999
 C    1.079430280219    0.247130307400    0.364152702999
 H    2.145137280219    0.028403307400    0.364058702999
 N   -0.887690719781    1.228270307400    0.364104702999
 H   -1.632624719781    1.914920307400    0.364358702999
 C   -1.045496719781   -0.135769692600    0.364159702999
 H   -2.023120719781   -0.611785692600    0.364033702999
 N    0.133419280219   -0.762364692600    0.364148702999
 K    0.133482082640   -0.762228976900   -0.635851285820
