10

 C    0.467394993313    1.497233365410    0.400530988609
 H    0.860881993313    2.510362365410    0.400750988609
 C    1.079427993313    0.247125365410    0.400566988609
 H    2.145134993313    0.028398365410    0.400472988609
 N   -0.887693006687    1.228265365410    0.400518988609
 H   -1.632627006687    1.914915365410    0.400772988609
 C   -1.045499006687   -0.135774634590    0.400573988609
 H   -2.023123006687   -0.611790634590    0.400447988609
 N    0.133416993313   -0.762369634590    0.400562988609
 K    0.133486075977   -0.762220347321   -0.699436999092
