10

 C    0.467392706408    1.497228423419    0.436945274218
 H    0.860879706408    2.510357423419    0.437165274218
 C    1.079425706408    0.247120423419    0.436981274218
 H    2.145132706408    0.028393423419    0.436887274218
 N   -0.887695293592    1.228260423419    0.436933274218
 H   -1.632629293592    1.914910423419    0.437187274218
 C   -1.045501293592   -0.135779576581    0.436988274218
 H   -2.023125293592   -0.611795576581    0.436862274218
 N    0.133414706408   -0.762374576581    0.436977274218
 K    0.133490069313   -0.762211717741   -0.763022712364
