10

 C    0.467388132597    1.497218539439    0.509773845438
 H    0.860875132597    2.510347539439    0.509993845438
 C    1.079421132597    0.247110539439    0.509809845438
 H    2.145128132597    0.028383539439    0.509715845438
 N   -0.887699867403    1.228250539439    0.509761845438
 H   -1.632633867403    1.914900539439    0.510015845438
 C   -1.045505867403   -0.135789460561    0.509816845438
 H   -2.023129867403   -0.611805460561    0.509690845438
 N    0.133410132597   -0.762384460561    0.509805845438
 K    0.133498055987   -0.762194458582   -0.890194138908
