10

 C    0.467385845692    1.497213597448    0.546188131048
 H    0.860872845692    2.510342597448    0.546408131048
 C    1.079418845692    0.247105597448    0.546224131048
 H    2.145125845692    0.028378597448    0.546130131048
 N   -0.887702154308    1.228245597448    0.546176131048
 H   -1.632636154308    1.914895597448    0.546430131048
 C   -1.045508154308   -0.135794402552    0.546231131048
 H   -2.023132154308   -0.611810402552    0.546105131048
 N    0.133407845692   -0.762389402552    0.546220131048
 K    0.133502049324   -0.762185829002   -0.953779852180
