10

 C    0.467383558787    1.497208655458    0.582602416658
 H    0.860870558787    2.510337655458    0.582822416658
 C    1.079416558787    0.247100655458    0.582638416658
 H    2.145123558787    0.028373655458    0.582544416658
 N   -0.887704441213    1.228240655458    0.582590416658
 H   -1.632638441213    1.914890655458    0.582844416658
 C   -1.045510441213   -0.135799344542    0.582645416658
 H   -2.023134441213   -0.611815344542    0.582519416658
 N    0.133405558787   -0.762394344542    0.582634416658
 K    0.133506042660   -0.762177199422   -1.017365565452
