10

 C    0.467378984976    1.497198771478    0.655430987878
 H    0.860865984976    2.510327771478    0.655650987878
 C    1.079411984976    0.247090771478    0.655466987878
 H    2.145118984976    0.028363771478    0.655372987878
 N   -0.887709015024    1.228230771478    0.655418987878
 H   -1.632643015024    1.914880771478    0.655672987878
 C   -1.045515015024   -0.135809228522    0.655473987878
 H   -2.023139015024   -0.611825228522    0.655347987878
 N    0.133400984976   -0.762404228522    0.655462987878
 K    0.133514029334   -0.762159940263   -1.144536991996
