10

 C    0.467374411165    1.497188887497    0.728259559098
 H    0.860861411165    2.510317887497    0.728479559098
 C    1.079407411165    0.247080887497    0.728295559098
 H    2.145114411165    0.028353887497    0.728201559098
 N   -0.887713588835    1.228220887497    0.728247559098
 H   -1.632647588835    1.914870887497    0.728501559098
 C   -1.045519588835   -0.135819112503    0.728302559098
 H   -2.023143588835   -0.611835112503    0.728176559098
 N    0.133396411165   -0.762414112503    0.728291559098
 K    0.133522016008   -0.762142681104   -1.271708418540
