10

 C    0.467369837355    1.497179003516    0.801088130317
 H    0.860856837355    2.510308003516    0.801308130317
 C    1.079402837355    0.247071003516    0.801124130317
 H    2.145109837355    0.028344003516    0.801030130317
 N   -0.887718162645    1.228211003516    0.801076130317
 H   -1.632652162645    1.914861003516    0.801330130317
 C   -1.045524162645   -0.135828996484    0.801131130317
 H   -2.023148162645   -0.611844996484    0.801005130317
 N    0.133391837355   -0.762423996484    0.801120130317
 K    0.133530002681   -0.762125421944   -1.398879845083
