10

 C    0.467362976639    1.497164177545    0.910330987147
 H    0.860849976639    2.510293177545    0.910550987147
 C    1.079395976639    0.247056177545    0.910366987147
 H    2.145102976639    0.028329177545    0.910272987147
 N   -0.887725023361    1.228196177545    0.910318987147
 H   -1.632659023361    1.914846177545    0.910572987147
 C   -1.045531023361   -0.135843822455    0.910373987147
 H   -2.023155023361   -0.611859822455    0.910247987147
 N    0.133384976639   -0.762438822455    0.910362987147
 K    0.133541982691   -0.762099533205   -1.589636984899
