10

 C    0.467358402828    1.497154293565    0.983159558367
 H    0.860845402828    2.510283293565    0.983379558367
 C    1.079391402828    0.247046293565    0.983195558367
 H    2.145098402828    0.028319293565    0.983101558367
 N   -0.887729597172    1.228186293565    0.983147558367
 H   -1.632663597172    1.914836293565    0.983401558367
 C   -1.045535597172   -0.135853706435    0.983202558367
 H   -2.023159597172   -0.611869706435    0.983076558367
 N    0.133380402828   -0.762448706435    0.983191558367
 K    0.133549969365   -0.762082274046   -1.716808411443
