10

 C    0.467356115923    1.497149351574    1.019573843977
 H    0.860843115923    2.510278351574    1.019793843977
 C    1.079389115923    0.247041351574    1.019609843977
 H    2.145096115923    0.028314351574    1.019515843977
 N   -0.887731884077    1.228181351574    1.019561843977
 H   -1.632665884077    1.914831351574    1.019815843977
 C   -1.045537884077   -0.135858648426    1.019616843977
 H   -2.023161884077   -0.611874648426    1.019490843977
 N    0.133378115923   -0.762453648426    1.019605843977
 K    0.133553962702   -0.762073644466   -1.780394124715
