10

 C    0.467353829018    1.497144409584    1.055988129587
 H    0.860840829018    2.510273409584    1.056208129587
 C    1.079386829018    0.247036409584    1.056024129587
 H    2.145093829018    0.028309409584    1.055930129587
 N   -0.887734170982    1.228176409584    1.055976129587
 H   -1.632668170982    1.914826409584    1.056230129587
 C   -1.045540170982   -0.135863590416    1.056031129587
 H   -2.023164170982   -0.611879590416    1.055905129587
 N    0.133375829018   -0.762458590416    1.056020129587
 K    0.133557956039   -0.762065014887   -1.843979837987
