10

 C    0.467344681396    1.497124641623    1.201645272026
 H    0.860831681396    2.510253641623    1.201865272026
 C    1.079377681396    0.247016641623    1.201681272026
 H    2.145084681396    0.028289641623    1.201587272026
 N   -0.887743318604    1.228156641623    1.201633272026
 H   -1.632677318604    1.914806641623    1.201887272026
 C   -1.045549318604   -0.135883358377    1.201688272026
 H   -2.023173318604   -0.611899358377    1.201562272026
 N    0.133366681396   -0.762478358377    1.201677272026
 K    0.133573929386   -0.762030496568   -2.098322691075
