10

 C    0.467337820680    1.497109815652    1.310888128856
 H    0.860824820680    2.510238815652    1.311108128856
 C    1.079370820680    0.247001815652    1.310924128856
 H    2.145077820680    0.028274815652    1.310830128856
 N   -0.887750179320    1.228141815652    1.310876128856
 H   -1.632684179320    1.914791815652    1.311130128856
 C   -1.045556179320   -0.135898184348    1.310931128856
 H   -2.023180179320   -0.611914184348    1.310805128856
 N    0.133359820680   -0.762493184348    1.310920128856
 K    0.133585909396   -0.762004607829   -2.289079830891
