10

 C    0.467335533775    1.497104873662    1.347302414466
 H    0.860822533775    2.510233873662    1.347522414466
 C    1.079368533775    0.246996873662    1.347338414466
 H    2.145075533775    0.028269873662    1.347244414466
 N   -0.887752466225    1.228136873662    1.347290414466
 H   -1.632686466225    1.914786873662    1.347544414466
 C   -1.045558466225   -0.135903126338    1.347345414466
 H   -2.023182466225   -0.611919126338    1.347219414466
 N    0.133357533775   -0.762498126338    1.347334414466
 K    0.133589902733   -0.761995978249   -2.352665544163
