10

 C    0.467319525438    1.497070279730    1.602202413735
 H    0.860806525438    2.510199279730    1.602422413735
 C    1.079352525438    0.246962279730    1.602238413735
 H    2.145059525438    0.028235279730    1.602144413735
 N   -0.887768474562    1.228102279730    1.602190413735
 H   -1.632702474562    1.914752279730    1.602444413735
 C   -1.045574474562   -0.135937720270    1.602245413735
 H   -2.023198474562   -0.611953720270    1.602119413735
 N    0.133341525438   -0.762532720270    1.602234413735
 K    0.133617856090   -0.761935571192   -2.797765537067
