10

 C    0.467317238532    1.497065337739    1.638616699345
 H    0.860804238532    2.510194337739    1.638836699345
 C    1.079350238532    0.246957337739    1.638652699345
 H    2.145057238532    0.028230337739    1.638558699345
 N   -0.887770761468    1.228097337739    1.638604699345
 H   -1.632704761468    1.914747337739    1.638858699345
 C   -1.045576761468   -0.135942662261    1.638659699345
 H   -2.023200761468   -0.611958662261    1.638533699345
 N    0.133339238532   -0.762537662261    1.638648699345
 K    0.133621849427   -0.761926941612   -2.861351250339
