10

 C    0.467305804006    1.497040627788    1.820688127394
 H    0.860792804006    2.510169627788    1.820908127394
 C    1.079338804006    0.246932627788    1.820724127394
 H    2.145045804006    0.028205627788    1.820630127394
 N   -0.887782195994    1.228072627788    1.820676127394
 H   -1.632716195994    1.914722627788    1.820930127394
 C   -1.045588195994   -0.135967372212    1.820731127394
 H   -2.023212195994   -0.611983372212    1.820605127394
 N    0.133327804006   -0.762562372212    1.820720127394
 K    0.133641816111   -0.761883793714   -3.179279816698
