10

 C    0.467303517101    1.497035685797    1.857102413004
 H    0.860790517101    2.510164685797    1.857322413004
 C    1.079336517101    0.246927685797    1.857138413004
 H    2.145043517101    0.028200685797    1.857044413004
 N   -0.887784482899    1.228067685797    1.857090413004
 H   -1.632718482899    1.914717685797    1.857344413004
 C   -1.045590482899   -0.135972314203    1.857145413004
 H   -2.023214482899   -0.611988314203    1.857019413004
 N    0.133325517101   -0.762567314203    1.857134413004
 K    0.133645809448   -0.761875164134   -3.242865529970
