10

 C    0.467296656385    1.497020859826    1.966345269834
 H    0.860783656385    2.510149859826    1.966565269834
 C    1.079329656385    0.246912859826    1.966381269834
 H    2.145036656385    0.028185859826    1.966287269834
 N   -0.887791343615    1.228052859826    1.966333269834
 H   -1.632725343615    1.914702859826    1.966587269834
 C   -1.045597343615   -0.135987140174    1.966388269834
 H   -2.023221343615   -0.612003140174    1.966262269834
 N    0.133318656385   -0.762582140174    1.966377269834
 K    0.133657789458   -0.761849275395   -3.433622669786
