10

 C    0.467287508763    1.497001091865    2.112002412273
 H    0.860774508763    2.510130091865    2.112222412273
 C    1.079320508763    0.246893091865    2.112038412273
 H    2.145027508763    0.028166091865    2.111944412273
 N   -0.887800491237    1.228033091865    2.111990412273
 H   -1.632734491237    1.914683091865    2.112244412273
 C   -1.045606491237   -0.136006908135    2.112045412273
 H   -2.023230491237   -0.612022908135    2.111919412273
 N    0.133309508763   -0.762601908135    2.112034412273
 K    0.133673762805   -0.761814757076   -3.687965522874
