10

 C    0.467282934953    1.496991207885    2.184830983493
 H    0.860769934953    2.510120207885    2.185050983493
 C    1.079315934953    0.246883207885    2.184866983493
 H    2.145022934953    0.028156207885    2.184772983493
 N   -0.887805065047    1.228023207885    2.184818983493
 H   -1.632739065047    1.914673207885    2.185072983493
 C   -1.045611065047   -0.136016792115    2.184873983493
 H   -2.023235065047   -0.612032792115    2.184747983493
 N    0.133304934953   -0.762611792115    2.184862983493
 K    0.133681749479   -0.761797497917   -3.815136949418
