10

 C    0.467278361142    1.496981323904    2.257659554713
 H    0.860765361142    2.510110323904    2.257879554713
 C    1.079311361142    0.246873323904    2.257695554713
 H    2.145018361142    0.028146323904    2.257601554713
 N   -0.887809638858    1.228013323904    2.257647554713
 H   -1.632743638858    1.914663323904    2.257901554713
 C   -1.045615638858   -0.136026676096    2.257702554713
 H   -2.023239638858   -0.612042676096    2.257576554713
 N    0.133300361142   -0.762621676096    2.257691554713
 K    0.133689736152   -0.761780238758   -3.942308375962
