10

 C    0.467276074237    1.496976381914    2.294073840323
 H    0.860763074237    2.510105381914    2.294293840323
 C    1.079309074237    0.246868381914    2.294109840323
 H    2.145016074237    0.028141381914    2.294015840323
 N   -0.887811925763    1.228008381914    2.294061840323
 H   -1.632745925763    1.914658381914    2.294315840323
 C   -1.045617925763   -0.136031618086    2.294116840323
 H   -2.023241925763   -0.612047618086    2.293990840323
 N    0.133298074237   -0.762626618086    2.294105840323
 K    0.133693729489   -0.761771609178   -4.005894089234
