10

 C    0.467269213521    1.496961555943    2.403316697153
 H    0.860756213521    2.510090555943    2.403536697153
 C    1.079302213521    0.246853555943    2.403352697153
 H    2.145009213521    0.028126555943    2.403258697153
 N   -0.887818786479    1.227993555943    2.403304697153
 H   -1.632752786479    1.914643555943    2.403558697153
 C   -1.045624786479   -0.136046444057    2.403359697153
 H   -2.023248786479   -0.612062444057    2.403233697153
 N    0.133291213521   -0.762641444057    2.403348697153
 K    0.133705709500   -0.761745720439   -4.196651229050
