10

 C    0.467266926615    1.496956613952    2.439730982762
 H    0.860753926615    2.510085613952    2.439950982762
 C    1.079299926615    0.246848613952    2.439766982762
 H    2.145006926615    0.028121613952    2.439672982762
 N   -0.887821073385    1.227988613952    2.439718982762
 H   -1.632755073385    1.914638613952    2.439972982762
 C   -1.045627073385   -0.136051386048    2.439773982762
 H   -2.023251073385   -0.612067386048    2.439647982762
 N    0.133288926615   -0.762646386048    2.439762982762
 K    0.133709702836   -0.761737090859   -4.260236942322
