10

 C    0.467260065899    1.496941787982    2.548973839592
 H    0.860747065899    2.510070787982    2.549193839592
 C    1.079293065899    0.246833787982    2.549009839592
 H    2.145000065899    0.028106787982    2.548915839592
 N   -0.887827934101    1.227973787982    2.548961839592
 H   -1.632761934101    1.914623787982    2.549215839592
 C   -1.045633934101   -0.136066212018    2.549016839592
 H   -2.023257934101   -0.612082212018    2.548890839592
 N    0.133282065899   -0.762661212018    2.549005839592
 K    0.133721682847   -0.761711202120   -4.450994082138
