10

 C    0.467246344467    1.496912136040    2.767459553251
 H    0.860733344467    2.510041136040    2.767679553251
 C    1.079279344467    0.246804136040    2.767495553251
 H    2.144986344467    0.028077136040    2.767401553251
 N   -0.887841655533    1.227944136040    2.767447553251
 H   -1.632775655533    1.914594136040    2.767701553251
 C   -1.045647655533   -0.136095863960    2.767502553251
 H   -2.023271655533   -0.612111863960    2.767376553251
 N    0.133268344467   -0.762690863960    2.767491553251
 K    0.133745642867   -0.761659424642   -4.832508361770
