10

 C    0.467241770657    1.496902252059    2.840288124471
 H    0.860728770657    2.510031252059    2.840508124471
 C    1.079274770657    0.246794252059    2.840324124471
 H    2.144981770657    0.028067252059    2.840230124471
 N   -0.887846229343    1.227934252059    2.840276124471
 H   -1.632780229343    1.914584252059    2.840530124471
 C   -1.045652229343   -0.136105747941    2.840331124471
 H   -2.023276229343   -0.612121747941    2.840205124471
 N    0.133263770657   -0.762700747941    2.840320124471
 K    0.133753629541   -0.761642165483   -4.959679788313
