10

 C    0.467239483751    1.496897310069    2.876702410081
 H    0.860726483751    2.510026310069    2.876922410081
 C    1.079272483751    0.246789310069    2.876738410081
 H    2.144979483751    0.028062310069    2.876644410081
 N   -0.887848516249    1.227929310069    2.876690410081
 H   -1.632782516249    1.914579310069    2.876944410081
 C   -1.045654516249   -0.136110689931    2.876745410081
 H   -2.023278516249   -0.612126689931    2.876619410081
 N    0.133261483751   -0.762705689931    2.876734410081
 K    0.133757622878   -0.761633535903   -5.023265501585
