10

 C    0.467237196846    1.496892368078    2.913116695691
 H    0.860724196846    2.510021368078    2.913336695691
 C    1.079270196846    0.246784368078    2.913152695691
 H    2.144977196846    0.028057368078    2.913058695691
 N   -0.887850803154    1.227924368078    2.913104695691
 H   -1.632784803154    1.914574368078    2.913358695691
 C   -1.045656803154   -0.136115631922    2.913159695691
 H   -2.023280803154   -0.612131631922    2.913033695691
 N    0.133259196846   -0.762710631922    2.913148695691
 K    0.133761616214   -0.761624906324   -5.086851214857
