10

 C    0.467234909941    1.496887426088    2.949530981301
 H    0.860721909941    2.510016426088    2.949750981301
 C    1.079267909941    0.246779426088    2.949566981301
 H    2.144974909941    0.028052426088    2.949472981301
 N   -0.887853090059    1.227919426088    2.949518981301
 H   -1.632787090059    1.914569426088    2.949772981301
 C   -1.045659090059   -0.136120573912    2.949573981301
 H   -2.023283090059   -0.612136573912    2.949447981301
 N    0.133256909941   -0.762715573912    2.949562981301
 K    0.133765609551   -0.761616276744   -5.150436928129
