10

 C    0.467230336130    1.496877542108    3.022359552521
 H    0.860717336130    2.510006542108    3.022579552521
 C    1.079263336130    0.246769542108    3.022395552521
 H    2.144970336130    0.028042542108    3.022301552521
 N   -0.887857663870    1.227909542108    3.022347552521
 H   -1.632791663870    1.914559542108    3.022601552521
 C   -1.045663663870   -0.136130457892    3.022402552521
 H   -2.023287663870   -0.612146457892    3.022276552521
 N    0.133252336130   -0.762725457892    3.022391552521
 K    0.133773596225   -0.761599017585   -5.277608354673
