10

 C    0.467214327793    1.496842948175    3.277259551790
 H    0.860701327793    2.509971948175    3.277479551790
 C    1.079247327793    0.246734948175    3.277295551790
 H    2.144954327793    0.028007948175    3.277201551790
 N   -0.887873672207    1.227874948175    3.277247551790
 H   -1.632807672207    1.914524948175    3.277501551790
 C   -1.045679672207   -0.136165051825    3.277302551790
 H   -2.023303672207   -0.612181051825    3.277176551790
 N    0.133236327793   -0.762760051825    3.277291551790
 K    0.133801549582   -0.761538610527   -5.722708347577
