10

 C    0.467212040888    1.496838006185    3.313673837400
 H    0.860699040888    2.509967006185    3.313893837400
 C    1.079245040888    0.246730006185    3.313709837400
 H    2.144952040888    0.028003006185    3.313615837400
 N   -0.887875959112    1.227870006185    3.313661837400
 H   -1.632809959112    1.914520006185    3.313915837400
 C   -1.045681959112   -0.136169993815    3.313716837400
 H   -2.023305959112   -0.612185993815    3.313590837400
 N    0.133234040888   -0.762764993815    3.313705837400
 K    0.133805542919   -0.761529980947   -5.786294060849
