10

 C    0.467193745645    1.496798470263    3.604988122279
 H    0.860680745645    2.509927470263    3.605208122279
 C    1.079226745645    0.246690470263    3.605024122279
 H    2.144933745645    0.027963470263    3.604930122279
 N   -0.887894254355    1.227830470263    3.604976122279
 H   -1.632828254355    1.914480470263    3.605230122279
 C   -1.045700254355   -0.136209529737    3.605031122279
 H   -2.023324254355   -0.612225529737    3.604905122279
 N    0.133215745645   -0.762804529737    3.605020122279
 K    0.133837489613   -0.761460944310   -6.294979767025
