21

 H    3.783062291992   -2.446723647550    0.201158192607
 H    2.747922291992   -3.319463647550   -0.952171807393
 H    2.262532291992   -3.240943647550    0.786338192607
 C    2.743782291992   -2.703363647550   -0.041141807393
 S    1.844232291992   -1.198733647550   -0.482031807393
 S    2.223992291992    0.094846352450    1.091358192607
 C    3.911062291992    0.669866352450    0.792228192607
 H    4.568632291992   -0.196123647550    0.640898192607
 H    4.216522291992    1.172566352450    1.722088192607
 H    3.962602291992    1.363966352450   -0.057121807393
RB   -0.628227708008    0.406396352450    0.162088192607
 S   -1.447642530397    0.938363427291    0.375560392520
 S   -1.469418450926   -0.460365303574   -1.152911493658
 C   -2.447449928196    2.302474981077   -0.262463823737
 H   -3.410276836453    1.911925020841   -0.616182539240
 H   -2.640366302042    2.953565506789    0.602664164557
 H   -1.926833790581    2.856726283662   -1.054335600250
 C   -3.104566535204   -1.220602452681   -1.031818514512
 H   -3.870507400496   -0.434289700291   -1.015158526378
 H   -3.227035689619   -1.797369402141   -1.960785293427
 H   -3.186997056691   -1.877313556139   -0.155599737195
