21

 H    3.815671979113   -2.467454143256    0.193140372750
 H    2.780531979113   -3.340194143256   -0.960189627250
 H    2.295141979113   -3.261674143256    0.778320372750
 C    2.776391979113   -2.724094143256   -0.049159627250
 S    1.876841979113   -1.219464143256   -0.490049627250
 S    2.256601979113    0.074115856744    1.083340372750
 C    3.943671979113    0.649135856744    0.784210372750
 H    4.601241979113   -0.216854143256    0.632880372750
 H    4.249131979113    1.151835856744    1.714070372750
 H    3.995211979113    1.343235856744   -0.065139627250
RB   -0.595618020887    0.385665856744    0.154070372750
 S   -1.496974325514    0.970829639069    0.388889792654
 S   -1.544417297616   -0.421898179331   -1.144472835153
 C   -2.491037494607    2.345662123479   -0.234940408654
 H   -3.460293012812    1.964526049416   -0.581294114970
 H   -2.670592794484    2.995081097379    0.634310376059
 H   -1.973004319165    2.898513315993   -1.029480381014
 C   -3.184731734354   -1.168863717530   -1.011265014924
 H   -3.943849436951   -0.376231460999   -0.984710760827
 H   -3.320493488557   -1.741080056561   -1.941197964949
 H   -3.264707238250   -1.828158422683   -0.136760572091
