21

 H    3.975750951806   -2.570055059619    0.152873433372
 H    2.940610951806   -3.442795059619   -1.000456566628
 H    2.455220951806   -3.364275059619    0.738053433372
 C    2.936470951806   -2.826695059619   -0.089426566628
 S    2.036920951806   -1.322065059619   -0.530316566628
 S    2.416680951806   -0.028485059619    1.043073433372
 C    4.103750951806    0.546534940381    0.743943433372
 H    4.761320951806   -0.319455059619    0.592613433372
 H    4.409210951806    1.049234940381    1.673803433372
 H    4.155290951806    1.240634940381   -0.105406566628
RB   -0.435539048194    0.283064940381    0.113803433372
 S   -1.746602764016    1.134212260126    0.455358953233
 S   -1.906763083142   -0.229374219370   -1.096453904432
 C   -2.712822504178    2.554954561024   -0.106246595672
 H   -3.708592940701    2.215499160191   -0.419125366113
 H   -2.833387295586    3.195515576433    0.779602010304
 H   -2.206567269746    3.102028655751   -0.912293835038
 C   -3.567148158720   -0.918043352341   -0.908865215834
 H   -4.294584529640   -0.098759178338   -0.839291676391
 H   -3.760971565697   -1.468897083935   -1.841405154602
 H   -3.636778438831   -1.588859503136   -0.042273659260
