21

 H    4.038611371752   -2.610639366664    0.136741382275
 H    3.003471371752   -3.483379366664   -1.016588617725
 H    2.518081371752   -3.404859366664    0.721921382275
 C    2.999331371752   -2.867279366664   -0.105558617725
 S    2.099781371752   -1.362649366664   -0.546448617725
 S    2.479541371752   -0.069069366664    1.026941382275
 C    4.166611371752    0.505950633336    0.727811382275
 H    4.824181371752   -0.360039366664    0.576481382275
 H    4.472071371752    1.008650633336    1.657671382275
 H    4.218151371752    1.200050633336   -0.121538617725
RB   -0.372678628248    0.242480633336    0.097671382275
 S   -1.847625308547    1.200021368049    0.481921342119
 S   -2.046587443366   -0.152477480691   -1.075096157194
 C   -2.803268853635    2.636124020304   -0.058305139386
 H   -3.807516693521    2.311145322994   -0.359232005550
 H   -2.903407413683    3.273061103336    0.832686138433
 H   -2.301232739634    3.181350114707   -0.868234041093
 C   -3.712890276933   -0.821073406990   -0.868341122950
 H   -4.428770258934    0.006968689327   -0.784122081185
 H   -3.926582258711   -1.364051172731   -1.801158879500
 H   -3.779124461865   -1.495922172790   -0.004619069252
