21

 H    6.436973094163   -4.177816277604   -0.499097894267
 H    5.401833094163   -5.050556277604   -1.652427894267
 H    4.916443094163   -4.972036277604    0.086082105733
 C    5.397693094163   -4.434456277604   -0.741397894267
 S    4.498143094163   -2.929826277604   -1.182287894267
 S    4.877903094163   -1.636246277604    0.391102105733
 C    6.564973094163   -1.061226277604    0.091972105733
 H    7.222543094163   -1.927216277604   -0.059357894267
 H    6.870433094163   -0.558526277604    1.021832105733
 H    6.616513094163   -0.367126277604   -0.757377894267
RB    2.025683094163   -1.324696277604   -0.538167894267
 S   -6.168465129721    3.994974470802    1.596554104863
 S   -6.915902934817    2.860276874005    0.032284098937
 C   -6.917275327241    5.622542640163    1.356147768483
 H   -8.003756228686    5.509631242545    1.248946446268
 H   -6.721780782867    6.175018658185    2.286811063521
 H   -6.484402100548    6.149784423997    0.495953923706
 C   -8.608520476515    2.475725804169    0.535771558784
 H   -9.123431324343    3.403462333440    0.817555979833
 H   -9.096203680064    2.074272761216   -0.365138332038
 H   -8.636300832811    1.740030351994    1.350513274577
