21

 H    4.131883229540   -2.671077030676    0.112567012688
 H    3.096743229540   -3.543817030676   -1.040762987312
 H    2.611353229540   -3.465297030676    0.697747012688
 C    3.092603229540   -2.927717030676   -0.129732987312
 S    2.193053229540   -1.423087030676   -0.570622987312
 S    2.572813229540   -0.129507030676    1.002767012688
 C    4.259883229540    0.445512969324    0.703637012688
 H    4.917453229540   -0.420477030676    0.552307012688
 H    4.565343229540    0.948212969324    1.633497012688
 H    4.311423229540    1.139612969324   -0.145712987312
RB   -0.279406770460    0.182042969324    0.073497012688
 S   -2.000177897476    1.299173826489    0.521788632505
 S   -2.251747812876   -0.037421114149   -1.041339354073
 C   -2.940664273543    2.755736146755    0.010514099584
 H   -3.955869509870    2.450491122406   -0.273854779944
 H   -3.013010345703    3.387285771863    0.908006803158
 H   -2.444484337026    3.298572793414   -0.804611918429
 C   -3.925256110732   -0.678797307902   -0.808230269960
 H   -4.624931267953    0.160775036092   -0.704289601947
 H   -4.165788231105   -1.210666045716   -1.740913511422
 H   -3.987022090154   -1.359168362571    0.051481194286
