21

 H    4.193473824326   -2.711099352638    0.096480860385
 H    3.158333824326   -3.583839352638   -1.056849139615
 H    2.672943824326   -3.505319352638    0.681660860385
 C    3.154193824326   -2.967739352638   -0.145819139615
 S    2.254643824326   -1.463109352638   -0.586709139615
 S    2.634403824326   -0.169529352638    0.986680860385
 C    4.321473824326    0.405490647362    0.687550860385
 H    4.979043824326   -0.460499352638    0.536220860385
 H    4.626933824326    0.908190647362    1.617410860385
 H    4.373013824326    1.099590647362   -0.161799139615
RB   -0.217816175674    0.142020647362    0.057410860385
 S   -2.102470267167    1.365544919496    0.548396920185
 S   -2.385822630185    0.039047537512   -1.017891269793
 C   -3.033340176067    2.834262145455    0.054594340932
 H   -4.054863946790    2.540998588233   -0.219572630553
 H   -3.088840398974    3.462290681848    0.955750220252
 H   -2.540774505423    3.375720438279   -0.763634573758
 C   -4.063224622378   -0.585881700933   -0.768653845791
 H   -4.752808391432    0.260463401939   -0.652874308733
 H   -4.319916989630   -1.110797082779   -1.700968682418
 H   -4.122367712301   -1.269619794140    0.088567202021
