21

 H    4.254652276857   -2.750923767117    0.080426442460
 H    3.219512276857   -3.623663767117   -1.072903557540
 H    2.734122276857   -3.545143767117    0.665606442460
 C    3.215372276857   -3.007563767117   -0.161873557540
 S    2.315822276857   -1.502933767117   -0.602763557540
 S    2.695582276857   -0.209353767117    0.970626442460
 C    4.382652276857    0.365666232883    0.671496442460
 H    5.040222276857   -0.500323767117    0.520166442460
 H    4.688112276857    0.868366232883    1.601356442460
 H    4.434192276857    1.059766232883   -0.177853557540
RB   -0.156637723143    0.102196232883    0.041356442460
 S   -2.205174779114    1.432113919984    0.575036942243
 S   -2.517984298716    0.115307021476   -0.993820080110
 C   -3.126820402170    2.911957419501    0.097415097223
 H   -4.153996235481    2.629839109343   -0.167161778061
 H   -3.166669780008    3.536541978921    1.001786808036
 H   -2.637656293746    3.452182398220   -0.723664696097
 C   -4.198683731130   -0.494376915724   -0.729494136235
 H   -4.878710135529    0.358114538642   -0.602793234685
 H   -4.470316776094   -1.012683678298   -1.661272904427
 H   -4.255447700369   -1.181256584528    0.125372977636
