21

 H    4.466120257440   -2.888947740044    0.024533696945
 H    3.430980257440   -3.761687740044   -1.128796303055
 H    2.945590257440   -3.683167740044    0.609713696945
 C    3.426840257440   -3.145587740044   -0.217766303055
 S    2.527290257440   -1.640957740044   -0.658656303055
 S    2.907050257440   -0.347377740044    0.914733696945
 C    4.594120257440    0.227642259956    0.615603696945
 H    5.251690257440   -0.638347740044    0.464273696945
 H    4.899580257440    0.730342259956    1.545463696945
 H    4.645660257440    0.921742259956   -0.233746303055
RB    0.054830257440   -0.035827740044   -0.014536303055
 S   -2.567297174203    1.666466899446    0.668574736666
 S   -2.967957997808    0.380478388258   -0.905860722036
 C   -3.459632182649    3.178686955483    0.239134636976
 H   -4.502483629972    2.930041066171    0.003936981918
 H   -3.452588634064    3.791956621648    1.152060012396
 H   -2.980911809194    3.715489338943   -0.590302874082
 C   -4.656690909449   -0.183729309447   -0.595725079146
 H   -5.307032643941    0.686335748545   -0.436749822773
 H   -4.972666805643   -0.681378611330   -1.524779700500
 H   -4.706659481387   -0.880098965415    0.251857397116
