21

 H    4.496048196982   -2.908513014891    0.016589316441
 H    3.460908196982   -3.781253014891   -1.136740683559
 H    2.975518196982   -3.702733014891    0.601769316441
 C    3.456768196982   -3.165153014891   -0.225710683559
 S    2.557218196982   -1.660523014891   -0.666600683559
 S    2.936978196982   -0.366943014891    0.906789316441
 C    4.624048196982    0.208076985109    0.607659316441
 H    5.281618196982   -0.657913014891    0.456329316441
 H    4.929508196982    0.710776985109    1.537519316441
 H    4.675588196982    0.902176985109   -0.241690683559
RB    0.084758196982   -0.055393014891   -0.022480683559
 S   -2.619310716900    1.700098332083    0.681977576154
 S   -3.030880009164    0.418139425736   -0.892930243435
 C   -3.507815760237    3.216253336727    0.258512283292
 H   -4.552488739830    2.971788405990    0.027044964331
 H   -3.494926602539    3.828007623467    1.172390064163
 H   -3.030423822928    3.752657772148   -0.571947709394
 C   -4.720419963103   -0.140420492192   -0.577020680224
 H   -5.366950796805    0.731746606611   -0.414069332459
 H   -5.041879116611   -0.635404450735   -1.505617997424
 H   -4.769576482324   -0.837981288493    0.269629295906
