21

 H    4.525916100047   -2.928044314108    0.008655147025
 H    3.490776100047   -3.800784314108   -1.144674852975
 H    3.005386100047   -3.722264314108    0.593835147025
 C    3.486636100047   -3.184684314108   -0.233644852975
 S    2.587086100047   -1.680054314108   -0.674534852975
 S    2.966846100047   -0.386474314108    0.898855147025
 C    4.653916100047    0.188545685892    0.599725147025
 H    5.311486100047   -0.677444314108    0.448395147025
 H    4.959376100047    0.691245685892    1.529585147025
 H    4.705456100047    0.882645685892   -0.249624852975
RB    0.114626100047   -0.074924314108   -0.030414852975
 S   -2.671384296073    1.733763740350    0.695390626729
 S   -3.093507720012    0.455746685750   -0.879927367586
 C   -3.556143283298    3.253707752377    0.277704381769
 H   -4.602552069820    3.013293222627    0.049863731809
 H   -3.537593522699    3.863972407477    1.192480306909
 H   -3.080043358352    3.789732914272   -0.553741627832
 C   -4.783788003181   -0.097348693142   -0.558413205877
 H   -5.426605154671    0.776835142401   -0.391621598399
 H   -5.110547459182   -0.589732557515   -1.486542761553
 H   -4.832165593719   -0.796064653768    0.287328613533
