21

 H    4.585483379250   -2.967009904768   -0.007182752499
 H    3.550343379250   -3.839749904768   -1.160512752499
 H    3.064953379250   -3.761229904768    0.577997247501
 C    3.546203379250   -3.223649904768   -0.249482752499
 S    2.646653379250   -1.719019904768   -0.690372752499
 S    3.026413379250   -0.425439904768    0.883017247501
 C    4.713483379250    0.149580095232    0.583887247501
 H    5.371053379250   -0.716409904768    0.432557247501
 H    5.018943379250    0.652280095232    1.513747247501
 H    4.765023379250    0.843680095232   -0.265462752499
RB    0.174193379250   -0.113889904768   -0.046252752499
 S   -2.775699981348    1.801191564659    0.722247167188
 S   -3.217932055883    0.530802840924   -0.853724229432
 C   -3.653210906136    3.328305162481    0.315567071014
 H   -4.702854278988    3.095622170164    0.094684135244
 H   -3.623862740022    3.935667443215    1.231990434525
 H   -3.179591032937    3.863623418415   -0.517748691572
 C   -4.909512130378   -0.011880435450   -0.521481843340
 H   -5.545180991577    0.866099307711   -0.347391698872
 H   -5.246356938655   -0.499252047955   -1.448650959823
 H   -4.956424087069   -0.712804741673    0.322513414505
