21

 H    4.821860688299   -3.121738248592   -0.070143732248
 H    3.786720688299   -3.994478248592   -1.223473732248
 H    3.301330688299   -3.915958248592    0.515036267752
 C    3.782580688299   -3.378378248592   -0.312443732248
 S    2.883030688299   -1.873748248592   -0.753333732248
 S    3.262790688299   -0.580168248592    0.820056267752
 C    4.949860688299   -0.005148248592    0.520926267752
 H    5.607430688299   -0.871138248592    0.369596267752
 H    5.255320688299    0.497551751408    1.450786267752
 H    5.001400688299    0.688951751408   -0.328423732248
RB    0.410570688299   -0.268618248592   -0.109213732248
 S   -3.194854530210    2.072036880707    0.830063947369
 S   -3.706163322781    0.829045690022   -0.746856716018
 C   -4.046347231847    3.623278112048    0.461145412127
 H   -5.106367622776    3.417299509111    0.264647467237
 H   -3.979769853060    4.220021079341    1.382583049583
 H   -3.581432795356    4.156326967577   -0.378503362041
 C   -5.401088559054    0.322135734857   -0.377256890799
 H   -6.011467090002    1.212684336437   -0.178279640641
 H   -5.772444375453   -0.147428147001   -1.300426811550
 H   -5.443152356788   -0.386449711725    0.460574185142
