21

 H    4.851228474603   -3.140967517524   -0.077972203671
 H    3.816088474603   -4.013707517524   -1.231302203671
 H    3.330698474603   -3.935187517524    0.507207796329
 C    3.811948474603   -3.397607517524   -0.320272203671
 S    2.912398474603   -1.892977517524   -0.761162203671
 S    3.292158474603   -0.599397517524    0.812227796329
 C    4.979228474603   -0.024377517524    0.513097796329
 H    5.636798474603   -0.890367517524    0.361767796329
 H    5.284688474603    0.478322482476    1.442957796329
 H    5.030768474603    0.669722482476   -0.336252203671
RB    0.439938474603   -0.287847517524   -0.117042203671
 S   -3.247428226145    2.106004319259    0.843582695938
 S   -3.766281787668    0.866118896842   -0.733318594909
 C   -4.095972749116    3.659833234541    0.478784177617
 H   -5.157056784938    3.456785161464    0.284995619275
 H   -4.025316275593    4.255354657556    1.400708216559
 H   -3.632026819758    4.192649319304   -0.361547765159
 C   -5.461466005079    0.363116776320   -0.359590584464
 H   -6.069012450766    1.254993465106   -0.157912630207
 H   -5.836578494635   -0.104446061667   -1.282257207255
 H   -5.503017994629   -0.346312576826    0.477551598835
