21

 H    4.880562060912   -3.160174754092   -0.085791950408
 H    3.845422060912   -4.032914754092   -1.239121950408
 H    3.360032060912   -3.954394754092    0.499388049592
 C    3.841282060912   -3.416814754092   -0.328091950408
 S    2.941732060912   -1.912184754092   -0.768981950408
 S    3.321492060912   -0.618604754092    0.804408049592
 C    5.008562060912   -0.043584754092    0.505278049592
 H    5.666132060912   -0.909574754092    0.353948049592
 H    5.314022060912    0.459115245908    1.435138049592
 H    5.060102060912    0.650515245908   -0.344071950408
RB    0.469272060912   -0.307054754092   -0.124861950408
 S   -3.300036122075    2.139993790174    0.857110169192
 S   -3.826224478754    0.903149340748   -0.719748791311
 C   -4.145694200518    3.696329282246    0.496316163031
 H   -5.207798958209    3.496132815457    0.305170368477
 H   -4.071069709541    4.290651381162    1.418701366830
 H   -3.682693198969    4.228921957660   -0.344678304406
 C   -5.521640155292    0.403946406008   -0.341998339691
 H   -6.126420005849    1.297105681322   -0.137698192405
 H   -5.900402338745   -0.061660379228   -1.264162974682
 H   -5.562697964537   -0.306304729595    0.494471140132
