21

 H    4.997582217258   -3.236797867560   -0.116987065616
 H    3.962442217258   -4.109537867560   -1.270317065616
 H    3.477052217258   -4.031017867560    0.468192934384
 C    3.958302217258   -3.493437867560   -0.359287065616
 S    3.058752217258   -1.988807867560   -0.800177065616
 S    3.438512217258   -0.695227867560    0.773212934384
 C    5.125582217258   -0.120207867560    0.474082934384
 H    5.783152217258   -0.986197867560    0.322752934384
 H    5.431042217258    0.382492132440    1.403942934384
 H    5.177122217258    0.573892132440   -0.375267065616
RB    0.586292217258   -0.383677867560   -0.156057065616
 S   -3.510781894684    2.276157506643    0.911303933949
 S   -4.064370049845    1.050862747313   -0.665190743278
 C   -4.345479160190    3.841776784958    0.565461752129
 H   -5.411280040459    3.652255865895    0.384265280706
 H   -4.256010321116    4.431515381448    1.489467028491
 H   -3.886037630548    4.373560191580   -0.277993326035
 C   -5.760472130729    0.565852963326   -0.272333860102
 H   -6.354800177632    1.463728535204   -0.058267657751
 H   -6.152846763081    0.107647058926   -1.192511876118
 H   -5.799713574876   -0.147479966756    0.561596502651
