21

 H    5.026765034267   -3.255905555009   -0.124765721836
 H    3.991625034267   -4.128645555009   -1.278095721836
 H    3.506235034267   -4.050125555009    0.460414278164
 C    3.987485034267   -3.512545555009   -0.367065721836
 S    3.087935034267   -2.007915555009   -0.807955721836
 S    3.467695034267   -0.714335555009    0.765434278164
 C    5.154765034267   -0.139315555009    0.466304278164
 H    5.812335034267   -1.005305555009    0.314974278164
 H    5.460225034267    0.363384444991    1.396164278164
 H    5.206305034267    0.554784444991   -0.383045721836
RB    0.615475034267   -0.402785555009   -0.163835721836
 S   -3.563540559914    2.310246526678    0.924872497720
 S   -4.123530506520    1.087693711304   -0.651489907764
 C   -4.395636127528    3.878016657737    0.582522023912
 H   -5.462273847207    3.690995300506    0.403667772358
 H   -4.302694091255    4.466660712980    1.506882337978
 H   -3.937033019166    4.409616770696   -0.261504686864
 C   -5.819752189598    0.606000284256   -0.255085147207
 H   -6.411611488442    1.504960650213   -0.038743889670
 H   -6.215302409124    0.149545022020   -1.174773519162
 H   -5.858576043349   -0.108055421673    0.578245979783
