21

 H    5.143240687118   -3.332162165282   -0.155804857878
 H    4.108100687118   -4.204902165282   -1.309134857878
 H    3.622710687118   -4.126382165282    0.429375142122
 C    4.103960687118   -3.588802165282   -0.398104857878
 S    3.204410687118   -2.084172165282   -0.838994857878
 S    3.584170687118   -0.790592165282    0.734395142122
 C    5.271240687118   -0.215572165282    0.435265142122
 H    5.928810687118   -1.081562165282    0.283935142122
 H    5.576700687118    0.287127834718    1.365125142122
 H    5.322780687118    0.478527834718   -0.414084857878
RB    0.731950687118   -0.479042165282   -0.194874857878
 S   -3.774830836018    2.446776746341    0.979222241644
 S   -4.358829857216    1.234655077989   -0.596483557182
 C   -4.597030281356    4.022551254793    0.649961197789
 H   -5.666715440797    3.844922172246    0.479951124252
 H   -4.491045768695    4.607009920831    1.575573096410
 H   -4.141594617817    4.553483648824   -0.196198201465
 C   -6.055361297372    0.765399945910   -0.186710469264
 H   -6.637870821686    1.668370344277    0.038140198195
 H   -6.462804537896    0.315583333278   -1.104475746909
 H   -6.092642154449    0.048624257928    0.644352922310
