21

 H    5.404057444816   -3.502859360677   -0.225244236816
 H    4.368917444816   -4.375599360677   -1.378574236816
 H    3.883527444816   -4.297079360677    0.359935763184
 C    4.364777444816   -3.759499360677   -0.467544236816
 S    3.465227444816   -2.254869360677   -0.908434236816
 S    3.844987444816   -0.961289360677    0.664955763184
 C    5.532057444816   -0.386269360677    0.365825763184
 H    6.189627444816   -1.252259360677    0.214495763184
 H    5.837517444816    0.116430639323    1.295685763184
 H    5.583597444816    0.307830639323   -0.483524236816
RB    0.992767444816   -0.649739360677   -0.264314236816
 S   -4.251487418470    2.754849918303    1.101907842627
 S   -4.881590658218    1.563421734761   -0.471817467210
 C   -5.054061346400    4.345716677958    0.797756387542
 H   -6.129190471619    4.186204095900    0.644998550852
 H   -4.922956692358    4.921777564109    1.725413361448
 H   -4.604811424004    4.875455167268   -0.052448422942
 C   -6.578094767961    1.118054946816   -0.036093334507
 H   -7.142241898757    2.028464211199    0.204995228142
 H   -7.008301565473    0.681314078988   -0.949776873728
 H   -6.612516275170    0.396014406678    0.790524006371
