21

 H    5.432947174979   -3.521760695537   -0.232929078878
 H    4.397807174979   -4.394500695537   -1.386259078878
 H    3.912417174979   -4.315980695537    0.352250921122
 C    4.393667174979   -3.778400695537   -0.475229078878
 S    3.494117174979   -2.273770695537   -0.916119078878
 S    3.873877174979   -0.980190695537    0.657270921122
 C    5.560947174979   -0.405170695537    0.358140921122
 H    6.218517174979   -1.271160695537    0.206810921122
 H    5.866407174979    0.097529304463    1.288000921122
 H    5.612487174979    0.288929304463   -0.491209078878
RB    1.021657174979   -0.668640695537   -0.271999078878
 S   -4.304539170546    2.789145290927    1.115570220556
 S   -4.939191558526    1.599806794165   -0.457907725476
 C   -5.105131717595    4.381481119537    0.813894489125
 H   -6.180768553336    4.223761933922    0.662858359394
 H   -4.971543028233    4.956687354488    1.741727386499
 H   -4.656499608872    4.911108179540   -0.036705879988
 C   -6.635648060346    1.156797330470   -0.019602760288
 H   -7.197953890595    2.067921715895    0.223080606370
 H   -7.068095588851    0.721370311803   -0.932855480298
 H   -6.669794914198    0.434234290829    0.806569289660
