21

 H    5.519524133076   -3.578396302766   -0.255950325799
 H    4.484384133076   -4.451136302766   -1.409280325799
 H    3.998994133076   -4.372616302766    0.329229674201
 C    4.480244133076   -3.835036302766   -0.498250325799
 S    3.580694133076   -2.330406302766   -0.939140325799
 S    3.960454133076   -1.036826302766    0.634249674201
 C    5.647524133076   -0.461806302766    0.335119674201
 H    6.305094133076   -1.327796302766    0.183789674201
 H    5.952984133076    0.040893697234    1.264979674201
 H    5.699064133076    0.232293697234   -0.514230325799
RB    1.108234133076   -0.725276302766   -0.295020325799
 S   -4.463786659165    2.892099806150    1.156590633609
 S   -5.111492982269    1.708805981139   -0.416125107649
 C   -5.258648275166    4.488630909929    0.862017195438
 H   -6.335712303732    4.336063809097    0.715941138152
 H   -5.117926110072    5.061358440239    1.790328826506
 H   -4.811796527330    5.017944648052    0.010285393936
 C   -6.807767580859    1.272561179364    0.029606032280
 H   -7.364760022515    2.185718590224    0.276858275603
 H   -7.246639546166    0.840928147934   -0.882382130114
 H   -6.841133852287    0.548495772826    0.854493654315
