21

 H    5.605973255106   -3.634935982612   -0.278924223004
 H    4.570833255106   -4.507675982612   -1.432254223004
 H    4.085443255106   -4.429155982612    0.306255776996
 C    4.566693255106   -3.891575982612   -0.521224223004
 S    3.667143255106   -2.386945982612   -0.962114223004
 S    4.046903255106   -1.093365982612    0.611275776996
 C    5.733973255106   -0.518345982612    0.312145776996
 H    6.391543255106   -1.384335982612    0.160815776996
 H    6.039433255106   -0.015645982612    1.242005776996
 H    5.785513255106    0.175754017388   -0.537204223004
RB    1.194683255106   -0.781815982612   -0.317994223004
 S   -4.623161983852    2.995150248756    1.197658396378
 S   -5.283096205491    1.817583856044   -0.374272509852
 C   -5.412594049961    4.595583739756    0.909735284619
 H   -6.490954786039    4.447850650401    0.768331912683
 H   -5.265182431482    5.165953901329    1.838460071424
 H   -4.967420181062    5.124612678066    0.056948565398
 C   -6.979139147499    1.387675981589    0.078442464881
 H   -7.531114231160    2.302712017330    0.329964370908
 H   -7.424021692153    0.959629123562   -0.832322868723
 H   -7.011784436367    0.662199168145    0.902117939974
