21

 H    5.721060640729   -3.710186408243   -0.309487768167
 H    4.685920640729   -4.582926408243   -1.462817768167
 H    4.200530640729   -4.504406408243    0.275692231833
 C    4.681780640729   -3.966826408243   -0.551787768167
 S    3.782230640729   -2.462196408243   -0.992677768167
 S    4.161990640729   -1.168616408243    0.580712231833
 C    5.849060640729   -0.593596408243    0.281582231833
 H    6.506630640729   -1.459586408243    0.130252231833
 H    6.154520640729   -0.090896408243    1.211442231833
 H    5.900600640729    0.100503591757   -0.567767768167
RB    1.309770640729   -0.857066408243   -0.348557768167
 S   -4.835840527184    3.132686653061    1.252483731180
 S   -5.510921163256    1.962302886795   -0.318379259204
 C   -5.618464345283    4.737916891720    0.972794788534
 H   -6.698376993261    4.596182315623    0.837215147445
 H   -5.462756689741    5.305319044220    1.901983660316
 H   -5.175382578885    5.266604805709    0.118708014555
 C   -7.206594368529    1.540244856076    0.143023698770
 H   -7.752300251040    2.457573099214    0.399820686747
 H   -7.658912176886    1.116683709107   -0.766175200878
 H   -7.238360384346    0.813014214410    0.965185558784
