21

 H    5.749803315980   -3.728976495433   -0.317117166244
 H    4.714663315980   -4.601716495433   -1.470447166244
 H    4.229273315980   -4.523196495433    0.268062833756
 C    4.710523315980   -3.985616495433   -0.559417166244
 S    3.810973315980   -2.480986495433   -1.000307166244
 S    4.190733315980   -1.187406495433    0.573082833756
 C    5.877803315980   -0.612386495433    0.273952833756
 H    6.535373315980   -1.478376495433    0.122622833756
 H    6.183263315980   -0.109686495433    1.203812833756
 H    5.929343315980    0.081713504567   -0.575397166244
RB    1.338513315980   -0.875856495433   -0.356187166244
 S   -4.889039334172    3.167093273356    1.266201553094
 S   -5.567716169652    1.998429292547   -0.304392224126
 C   -5.670033137915    4.773456341063    0.988467079859
 H   -6.750305377265    4.633147741996    0.854276013405
 H   -5.512354132116    5.340145954177    1.917758341854
 H   -5.227450346417    5.302065207464    0.134072722064
 C   -7.263288050664    1.578235114840    0.159079608182
 H   -7.807496560457    2.496101903784    0.417126821926
 H   -7.717369587775    1.155746136011   -0.749738913044
 H   -7.294847556693    0.850587155578    0.980880104020
