21

 H    5.950713294107   -3.860280433823   -0.370405147130
 H    4.915573294107   -4.733020433823   -1.523735147130
 H    4.430183294107   -4.654500433823    0.214774852870
 C    4.911433294107   -4.116920433823   -0.612705147130
 S    4.011883294107   -2.612290433823   -1.053595147130
 S    4.391643294107   -1.318710433823    0.519794852870
 C    6.078713294107   -0.743690433823    0.220664852870
 H    6.736283294107   -1.609680433823    0.069334852870
 H    6.384173294107   -0.240990433823    1.150524852870
 H    6.130253294107   -0.049590433823   -0.628685147130
RB    1.539423294107   -1.007160433823   -0.409475147130
 S   -5.261719731717    3.408166287354    1.362344112148
 S   -5.963673832220    2.250768972095   -0.206360594136
 C   -6.032036195222    5.021805173506    1.097255154343
 H   -7.114552905705    4.890742979982    0.972106725051
 H   -5.861581901375    5.583809271371    2.027136202538
 H   -5.592704182276    5.549920365402    0.240880057736
 C   -7.658463189116    1.842639702376    0.270559551121
 H   -8.192896483103    2.763939107212    0.536678264903
 H   -8.123945733738    1.427157305257   -0.635717703607
 H   -7.688707113511    1.112282060571    1.090002428993
