21

 H    6.065317582889   -3.935150666838   -0.400770558710
 H    5.030177582889   -4.807890666838   -1.554100558710
 H    4.544787582889   -4.729370666838    0.184409441290
 C    5.026037582889   -4.191790666838   -0.643070558710
 S    4.126487582889   -2.687160666838   -1.083960558710
 S    4.506247582889   -1.393580666838    0.489429441290
 C    6.193317582889   -0.818560666838    0.190299441290
 H    6.850887582889   -1.684550666838    0.038969441290
 H    6.498777582889   -0.315860666838    1.120159441290
 H    6.244857582889   -0.124460666838   -0.659050558710
RB    1.654027582889   -1.082030666838   -0.439840558710
 S   -5.474881371890    3.546082884275    1.417367580533
 S   -6.188806630464    2.394571587819   -0.150265992534
 C   -6.239620513609    5.163425078272    1.158778452691
 H   -7.323235048999    5.037129343554    1.038317743398
 H   -6.062585708141    5.722969562049    2.088913219500
 H   -5.801974634758    5.691298603936    0.301391605796
 C   -7.883107426650    1.992647580828    0.333609192454
 H   -8.412456968221    2.915676128106    0.603864761591
 H   -8.354443043273    1.580813921959   -0.571307299840
 H   -7.912689112789    1.260890614241    1.151826935904
