21

 H    6.179795252862   -4.009918049652   -0.431080562542
 H    5.144655252862   -4.882658049652   -1.584410562542
 H    4.659265252862   -4.804138049652    0.154099437458
 C    5.140515252862   -4.266558049652   -0.673380562542
 S    4.240965252862   -2.761928049652   -1.114270562542
 S    4.620725252862   -1.468348049652    0.459119437458
 C    6.307795252862   -0.893328049652    0.159989437458
 H    6.965365252862   -1.759318049652    0.008659437458
 H    6.613255252862   -0.390628049652    1.089849437458
 H    6.359335252862   -0.199228049652   -0.689360562542
RB    1.768505252862   -1.156798049652   -0.470150562542
 S   -5.688169630873    3.684102331398    1.472446456667
 S   -6.413224103263    2.538119509590   -0.094130047781
 C   -6.447670738028    5.304863670687    1.219897820370
 H   -7.532271151041    5.183006033433    1.103818034295
 H   -6.264511858616    5.862090821557    2.150237953507
 H   -6.011601205090    5.832520045141    0.361574633837
 C   -8.107017728851    2.141964623355    0.396234867390
 H   -8.631606310667    3.066578433512    0.670327608621
 H   -8.583788429383    1.733550980425   -0.507383458831
 H   -8.135992576750    1.408903196158    1.213305863170
