21

 H    6.265578480787   -4.065931880964   -0.453779404720
 H    5.230438480787   -4.938671880964   -1.607109404720
 H    4.745048480787   -4.860151880964    0.131400595280
 C    5.226298480787   -4.322571880964   -0.696079404720
 S    4.326748480787   -2.817941880964   -1.136969404720
 S    4.706508480787   -1.524361880964    0.436420595280
 C    6.393578480787   -0.949341880964    0.137290595280
 H    7.051148480787   -1.815331880964   -0.014039404720
 H    6.699038480787   -0.446641880964    1.067150595280
 H    6.445118480787   -0.255241880964   -0.712059404720
RB    1.854288480787   -1.212811880964   -0.492849404720
 S   -5.848210849664    3.787678622537    1.513789274462
 S   -6.581111041223    2.645626075726   -0.052006321916
 C   -6.603988445431    5.410836527261    1.265497698949
 H   -7.689263623087    5.292111601969    1.152519660034
 H   -6.416508584487    5.966412139985    2.195964827001
 H   -6.169035311711    5.938344199503    0.406516903591
 C   -8.274516254941    2.253538388047    0.442947531816
 H   -8.795728265624    3.179256776627    0.719740259076
 H   -8.755114813219    1.847552000418   -0.459736334741
 H   -8.303068445486    1.519555290097    1.259205575782
