21

 H    6.322734368226   -4.103247086286   -0.468896904720
 H    5.287594368226   -4.975987086286   -1.622226904720
 H    4.802204368226   -4.897467086286    0.116283095280
 C    5.283454368226   -4.359887086286   -0.711196904720
 S    4.383904368226   -2.855257086286   -1.152086904720
 S    4.763664368226   -1.561677086286    0.421303095280
 C    6.450734368226   -0.986657086286    0.122173095280
 H    7.108304368226   -1.852647086286   -0.029156904720
 H    6.756194368226   -0.483957086286    1.052033095280
 H    6.502274368226   -0.292557086286   -0.727176904720
RB    1.911444368226   -1.250127086286   -0.507966904720
 S   -5.954937926703    3.856756832183    1.541366214444
 S   -6.692847805130    2.717228163751   -0.023915225183
 C   -6.708324543162    5.481438995989    1.295792320983
 H   -7.794021771643    5.364716125974    1.184800627222
 H   -6.518084011970    6.035952278662    2.226332806793
 H   -6.274086488156    6.008853623557    0.436392703917
 C   -8.385991583767    2.327737554678    0.473974823227
 H   -8.905038762301    3.254155600887    0.752489345314
 H   -8.869032718877    1.923308099976   -0.428103977134
 H   -8.414276133372    1.593165046883    1.289711805990
