21

 H    6.408422155905   -4.159181343554   -0.491551757159
 H    5.373282155905   -5.031921343554   -1.644881757159
 H    4.887892155905   -4.953401343554    0.093628242841
 C    5.369142155905   -4.415821343554   -0.733851757159
 S    4.469592155905   -2.911191343554   -1.174741757159
 S    4.849352155905   -1.617611343554    0.398648242841
 C    6.536422155905   -1.042591343554    0.099518242841
 H    7.193992155905   -1.908581343554   -0.051811757159
 H    6.841882155905   -0.539891343554    1.029378242841
 H    6.587962155905   -0.348491343554   -0.749831757159
RB    1.997132155905   -1.306061343554   -0.530621757159
 S   -6.115074585741    3.960412697367    1.582753021980
 S   -6.860189341006    2.824533469170    0.018232347608
 C   -6.865004097342    5.587278788864    1.341086904437
 H   -7.951296232826    5.473437641928    1.232959914048
 H   -6.670790982469    6.140253559917    2.271722281312
 H   -6.431797521324    6.114562215634    0.481086421909
 C   -8.552938702288    2.438778047779    0.520353493095
 H   -9.068860355143    3.366194589000    0.801341243869
 H   -9.039490521125    2.036597460197   -0.380843592264
 H   -8.580841402812    1.703356621803    1.335338385910
