28

 P   -1.222492577068    1.481892965533   -0.533445835313
 O   -2.103152577068    2.707202965533   -0.614835835313
 O   -0.835732577068    0.641432965533   -1.763055835313
 O    0.198717422932    1.784382965533    0.346494164687
 O   -1.744102577068    0.411392965533    0.678154164687
 C    0.912007422932    2.968772965533   -0.072135835313
 H    0.234347422932    3.833072965533   -0.073245835313
 H    1.333747422932    2.825182965533   -1.078025835313
 H    1.724177422932    3.126162965533    0.647784164687
 C   -3.132092577068    0.028872965533    0.562674164687
 H   -3.280692577068   -0.606137034467   -0.323075835313
 H   -3.762672577068    0.925502965533    0.488824164687
 H   -3.387972577068   -0.534877034467    1.467834164687
NA    0.141537422932    0.163502965533    1.959054164687
NA    0.570097422932   -1.026137034467   -1.648525835313
 P    1.091610709623   -1.323237553269    0.476334293165
 O   -0.329602803701   -1.625731796343   -0.403608330449
 O    1.613226761398   -0.252734588927   -0.735261128899
 O    1.972269219414   -2.548550038567    0.557723635258
 O    0.704845484363   -0.482786264227    1.705939496219
 C   -1.042885708968   -2.810115133091    0.015015717580
 H   -0.365225911912   -3.674416518384    0.016128792146
 H   -1.464627267796   -2.666530107973    1.020900112040
 H   -1.855055827544   -2.967504516593   -0.704910229551
 C    3.001208441023    0.129778850022   -0.619774122926
 H    3.149811969071    0.764781550290    0.265977854607
 H    3.631791371431   -0.766849833569   -0.545922960862
 H    3.257091913245    0.693530743742   -1.524928699709
