28

 P   -1.274283433767    1.544673271648   -0.556045249190
 O   -2.154943433767    2.769983271648   -0.637435249190
 O   -0.887523433767    0.704213271648   -1.785655249190
 O    0.146926566233    1.847163271648    0.323894750810
 O   -1.795893433767    0.474173271648    0.655554750810
 C    0.860216566233    3.031553271648   -0.094735249190
 H    0.182556566233    3.895853271648   -0.095845249190
 H    1.281956566233    2.887963271648   -1.100625249190
 H    1.672386566233    3.188943271648    0.625184750810
 C   -3.183883433767    0.091653271648    0.540074750810
 H   -3.332483433767   -0.543356728352   -0.345675249190
 H   -3.814463433767    0.988283271648    0.466224750810
 H   -3.439763433767   -0.472096728352    1.445234750810
NA    0.089746566233    0.226283271648    1.936454750810
NA    0.518306566233   -0.963356728352   -1.671125249190
 P    1.162452067373   -1.409110666954    0.507246567367
 O   -0.258761445951   -1.711604910029   -0.372696056247
 O    1.684068119147   -0.338607702612   -0.704348854697
 O    2.043110577164   -2.634423152252    0.588635909460
 O    0.775686842113   -0.568659377912    1.736851770421
 C   -0.972044351218   -2.895988246777    0.045927991782
 H   -0.294384554162   -3.760289632070    0.047041066348
 H   -1.393785910047   -2.752403221658    1.051812386242
 H   -1.784214469794   -3.053377630278   -0.673997955349
 C    3.072049798773    0.043905736337   -0.588861848724
 H    3.220653326820    0.678908436605    0.296890128809
 H    3.702632729181   -0.852722947254   -0.515010686660
 H    3.327933270995    0.607657630057   -1.494016425507
