28

 P   -1.351969718815    1.638843730821   -0.589944370006
 O   -2.232629718815    2.864153730821   -0.671334370006
 O   -0.965209718815    0.798383730821   -1.819554370006
 O    0.069240281185    1.941333730821    0.289995629994
 O   -1.873579718815    0.568343730821    0.621655629994
 C    0.782530281185    3.125723730821   -0.128634370006
 H    0.104870281185    3.990023730821   -0.129744370006
 H    1.204270281185    2.982133730821   -1.134524370006
 H    1.594700281185    3.283113730821    0.591285629994
 C   -3.261569718815    0.185823730821    0.506175629994
 H   -3.410169718815   -0.449186269179   -0.379574370006
 H   -3.892149718815    1.082453730821    0.432325629994
 H   -3.517449718815   -0.377926269179    1.411335629994
NA    0.012060281185    0.320453730821    1.902555629994
NA    0.440620281185   -0.869186269179   -1.705024370006
 P    1.268714103997   -1.537920337482    0.553614978670
 O   -0.152499409327   -1.840414580556   -0.326327644944
 O    1.790330155772   -0.467417373140   -0.657980443394
 O    2.149372613788   -2.763232822780    0.635004320763
 O    0.881948878738   -0.697469048440    1.783220181724
 C   -0.865782314593   -3.024797917305    0.092296403085
 H   -0.188122517537   -3.889099302597    0.093409477651
 H   -1.287523873422   -2.881212892186    1.098180797545
 H   -1.677952433170   -3.182187300806   -0.627629544046
 C    3.178311835397   -0.084903934191   -0.542493437421
 H    3.326915363445    0.550098766077    0.343258540112
 H    3.808894765806   -0.981532617782   -0.468642275357
 H    3.434195307620    0.478847959529   -1.447648014204
