28

 P   -1.455551432212    1.764404343051   -0.635143197761
 O   -2.336211432212    2.989714343051   -0.716533197761
 O   -1.068791432212    0.923944343051   -1.864753197761
 O   -0.034341432212    2.066894343051    0.244796802239
 O   -1.977161432212    0.693904343051    0.576456802239
 C    0.678948567788    3.251284343051   -0.173833197761
 H    0.001288567788    4.115584343051   -0.174943197761
 H    1.100688567788    3.107694343051   -1.179723197761
 H    1.491118567788    3.408674343051    0.546086802239
 C   -3.365151432212    0.311384343051    0.460976802239
 H   -3.513751432212   -0.323625656949   -0.424773197761
 H   -3.995731432212    1.208014343051    0.387126802239
 H   -3.621031432212   -0.252365656949    1.366136802239
NA   -0.091521432212    0.446014343051    1.857356802239
NA    0.337038567788   -0.743625656949   -1.750223197761
 P    1.410396819497   -1.709666564853    0.615439527074
 O   -0.010816693827   -2.012160807927   -0.264503096539
 O    1.932012871272   -0.639163600510   -0.596155894989
 O    2.291055329288   -2.934979050150    0.696828869167
 O    1.023631594237   -0.869215275811    1.845044730128
 C   -0.724099599094   -3.196544144675    0.154120951489
 H   -0.046439802038   -4.060845529968    0.155234026055
 H   -1.145841157922   -3.052959119556    1.160005345949
 H   -1.536269717670   -3.353933528176   -0.565804995642
 C    3.319994550897   -0.256650161561   -0.480668889017
 H    3.468598078945    0.378352538707    0.405083088516
 H    3.950577481306   -1.153278845153   -0.406817726953
 H    3.575878023119    0.307101732158   -1.385823465800
