28

 P   -1.481446860562    1.795794496108   -0.646442904700
 O   -2.362106860562    3.021104496108   -0.727832904700
 O   -1.094686860562    0.955334496108   -1.876052904700
 O   -0.060236860562    2.098284496108    0.233497095300
 O   -2.003056860562    0.725294496108    0.565157095300
 C    0.653053139438    3.282674496108   -0.185132904700
 H   -0.024606860562    4.146974496108   -0.186242904700
 H    1.074793139438    3.139084496108   -1.191022904700
 H    1.465223139438    3.440064496108    0.534787095300
 C   -3.391046860562    0.342774496108    0.449677095300
 H   -3.539646860562   -0.292235503892   -0.436072904700
 H   -4.021626860562    1.239404496108    0.375827095300
 H   -3.646926860562   -0.220975503892    1.354837095300
NA   -0.117416860562    0.477404496108    1.846057095300
NA    0.311143139438   -0.712235503892   -1.761522904700
 P    1.445817498372   -1.752603121695    0.630895664175
 O    0.024603985048   -2.055097364769   -0.249046959438
 O    1.967433550147   -0.682100157353   -0.580699757888
 O    2.326476008163   -2.977915606993    0.712285006268
 O    1.059052273112   -0.912151832653    1.860500867229
 C   -0.688678920219   -3.239480701518    0.169577088590
 H   -0.011019123163   -4.103782086810    0.170690163156
 H   -1.110420479047   -3.095895676399    1.175461483050
 H   -1.500849038795   -3.396870085019   -0.550348858541
 C    3.355415229772   -0.299586718404   -0.465212751916
 H    3.504018757820    0.335415981864    0.420539225617
 H    3.985998160181   -1.196215401995   -0.391361589852
 H    3.611298701994    0.264165175316   -1.370367328699
