28

 P   -1.533237717260    1.858574802223   -0.669042318577
 O   -2.413897717260    3.083884802223   -0.750432318577
 O   -1.146477717260    1.018114802223   -1.898652318577
 O   -0.112027717260    2.161064802223    0.210897681423
 O   -2.054847717260    0.788074802223    0.542557681423
 C    0.601262282740    3.345454802223   -0.207732318577
 H   -0.076397717260    4.209754802223   -0.208842318577
 H    1.023002282740    3.201864802223   -1.213622318577
 H    1.413432282740    3.502844802223    0.512187681423
 C   -3.442837717260    0.405554802223    0.427077681423
 H   -3.591437717260   -0.229455197777   -0.458672318577
 H   -4.073417717260    1.302184802223    0.353227681423
 H   -3.698717717260   -0.158195197777    1.332237681423
NA   -0.169207717260    0.540184802223    1.823457681423
NA    0.259352282740   -0.649455197777   -1.784122318577
 P    1.516658856122   -1.838476235380    0.661807938377
 O    0.095445342798   -2.140970478455   -0.218134685236
 O    2.038274907897   -0.767973271038   -0.549787483686
 O    2.397317365913   -3.063788720678    0.743197280470
 O    1.129893630862   -0.998024946338    1.891413141431
 C   -0.617837562469   -3.325353815203    0.200489362792
 H    0.059822234587   -4.189655200496    0.201602437358
 H   -1.039579121298   -3.181768790084    1.206373757253
 H   -1.430007681045   -3.482743198704   -0.519436584339
 C    3.426256587522   -0.385459832089   -0.434300477714
 H    3.574860115569    0.249542868179    0.451451499819
 H    4.056839517930   -1.282088515681   -0.360449315650
 H    3.682140059744    0.178292061631   -1.339455054497
