28

 P   -1.559133145610    1.889964955281   -0.680342025516
 O   -2.439793145610    3.115274955281   -0.761732025516
 O   -1.172373145610    1.049504955281   -1.909952025516
 O   -0.137923145610    2.192454955281    0.199597974484
 O   -2.080743145610    0.819464955281    0.531257974484
 C    0.575366854390    3.376844955281   -0.219032025516
 H   -0.102293145610    4.241144955281   -0.220142025516
 H    0.997106854390    3.233254955281   -1.224922025516
 H    1.387536854390    3.534234955281    0.500887974484
 C   -3.468733145610    0.436944955281    0.415777974484
 H   -3.617333145610   -0.198065044719   -0.469972025516
 H   -4.099313145610    1.333574955281    0.341927974484
 H   -3.724613145610   -0.126805044719    1.320937974484
NA   -0.195103145610    0.571574955281    1.812157974484
NA    0.233456854390   -0.618065044719   -1.795422025516
 P    1.552079534997   -1.881412792223    0.677264075478
 O    0.130866021673   -2.183907035297   -0.202678548135
 O    2.073695586771   -0.810909827881   -0.534331346585
 O    2.432738044788   -3.106725277521    0.758653417571
 O    1.165314309737   -1.040961503181    1.906869278532
 C   -0.582416883594   -3.368290372045    0.215945499893
 H    0.095242913462   -4.232591757338    0.217058574459
 H   -1.004158442423   -3.224705346927    1.221829894354
 H   -1.394587002170   -3.525679755547   -0.503980447238
 C    3.461677266397   -0.428396388932   -0.418844340613
 H    3.610280794444    0.206606311336    0.466907636920
 H    4.092260196805   -1.325025072523   -0.344993178549
 H    3.717560738619    0.135355504788   -1.323998917396
