28

 P   -1.688610287357    2.046915720569   -0.736840560210
 O   -2.569270287357    3.272225720569   -0.818230560210
 O   -1.301850287357    1.206455720569   -1.966450560210
 O   -0.267400287357    2.349405720569    0.143099439790
 O   -2.210220287357    0.976415720569    0.474759439790
 C    0.445889712643    3.533795720569   -0.275530560210
 H   -0.231770287357    4.398095720569   -0.276640560210
 H    0.867629712643    3.390205720569   -1.281420560210
 H    1.258059712643    3.691185720569    0.444389439790
 C   -3.598210287357    0.593895720569    0.359279439790
 H   -3.746810287357   -0.041114279431   -0.526470560210
 H   -4.228790287357    1.490525720569    0.285429439790
 H   -3.854090287357    0.030145720569    1.264439439790
NA   -0.324580287357    0.728525720569    1.755659439790
NA    0.103979712643   -0.461114279431   -1.851920560210
 P    1.729182929371   -2.096095576436    0.754544760983
 O    0.307969416047   -2.398589819510   -0.125397862630
 O    2.250798981146   -1.025592612094   -0.457050661080
 O    2.609841439162   -3.321408061734    0.835934103076
 O    1.342417704111   -1.255644287394    1.984149964037
 C   -0.405313489219   -3.582973156258    0.293226185399
 H    0.272346307836   -4.447274541551    0.294339259964
 H   -0.827055048048   -3.439388131140    1.299110579859
 H   -1.217483607796   -3.740362539760   -0.426699761733
 C    3.638780660771   -0.643079173145   -0.341563655108
 H    3.787384188819   -0.008076472877    0.544188322426
 H    4.269363591180   -1.539707856736   -0.267712493043
 H    3.894664132994   -0.079327279425   -1.246718231891
