28

 P   -1.714505715706    2.078305873626   -0.748140267149
 O   -2.595165715706    3.303615873626   -0.829530267149
 O   -1.327745715706    1.237845873626   -1.977750267149
 O   -0.293295715706    2.380795873626    0.131799732851
 O   -2.236115715706    1.007805873626    0.463459732851
 C    0.419994284294    3.565185873626   -0.286830267149
 H   -0.257665715706    4.429485873626   -0.287940267149
 H    0.841734284294    3.421595873626   -1.292720267149
 H    1.232164284294    3.722575873626    0.433089732851
 C   -3.624105715706    0.625285873626    0.347979732851
 H   -3.772705715706   -0.009724126374   -0.537770267149
 H   -4.254685715706    1.521915873626    0.274129732851
 H   -3.879985715706    0.061535873626    1.253139732851
NA   -0.350475715706    0.759915873626    1.744359732851
NA    0.078084284294   -0.429724126374   -1.863220267149
 P    1.764603608246   -2.139032133279    0.770000898084
 O    0.343390094922   -2.441526376353   -0.109941725529
 O    2.286219660021   -1.068529168937   -0.441594523979
 O    2.645262118037   -3.364344618576    0.851390240177
 O    1.377838382986   -1.298580844237    1.999606101138
 C   -0.369892810345   -3.625909713101    0.308682322500
 H    0.307766986711   -4.490211098394    0.309795397065
 H   -0.791634369173   -3.482324687982    1.314566716960
 H   -1.182062928921   -3.783299096603   -0.411243624632
 C    3.674201339646   -0.686015729987   -0.326107518007
 H    3.822804867694   -0.051013029720    0.559644459527
 H    4.304784270055   -1.582644413579   -0.252256355942
 H    3.930084811868   -0.122263836268   -1.231262094789
