28

 P   -1.792192000754    2.172476332799   -0.782039387965
 O   -2.672852000754    3.397786332799   -0.863429387965
 O   -1.405432000754    1.332016332799   -2.011649387965
 O   -0.370982000754    2.474966332799    0.097900612035
 O   -2.313802000754    1.101976332799    0.429560612035
 C    0.342307999246    3.659356332799   -0.320729387965
 H   -0.335352000754    4.523656332799   -0.321839387965
 H    0.764047999246    3.515766332799   -1.326619387965
 H    1.154477999246    3.816746332799    0.399190612035
 C   -3.701792000754    0.719456332799    0.314080612035
 H   -3.850392000754    0.084446332799   -0.571669387965
 H   -4.332372000754    1.616086332799    0.240230612035
 H   -3.957672000754    0.155706332799    1.219240612035
NA   -0.428162000754    0.854086332799    1.710460612035
NA    0.000397999246   -0.335553667201   -1.897119387965
 P    1.870865644871   -2.267841803807    0.816369309388
 O    0.449652131547   -2.570336046881   -0.063573314226
 O    2.392481696646   -1.197338839464   -0.395226112676
 O    2.751524154662   -3.493154289104    0.897758651481
 O    1.484100419611   -1.427390514764    2.045974512441
 C   -0.263630773720   -3.754719383629    0.355050733803
 H    0.414029023336   -4.619020768922    0.356163808368
 H   -0.685372332549   -3.611134358510    1.360935128263
 H   -1.075800892296   -3.912108767130   -0.364875213328
 C    3.780463376271   -0.814825400515   -0.279739106704
 H    3.929066904319   -0.179822700247    0.606012870830
 H    4.411046306679   -1.711454084107   -0.205887944639
 H    4.036346848493   -0.251073506795   -1.184893683486
