28

 P   -1.869878285802    2.266646791971   -0.815938508781
 O   -2.750538285802    3.491956791971   -0.897328508781
 O   -1.483118285802    1.426186791971   -2.045548508781
 O   -0.448668285802    2.569136791971    0.064001491219
 O   -2.391488285802    1.196146791971    0.395661491219
 C    0.264621714198    3.753526791971   -0.354628508781
 H   -0.413038285802    4.617826791971   -0.355738508781
 H    0.686361714198    3.609936791971   -1.360518508781
 H    1.076791714198    3.910916791971    0.365291491219
 C   -3.779478285802    0.813626791971    0.280181491219
 H   -3.928078285802    0.178616791971   -0.605568508781
 H   -4.410058285802    1.710256791971    0.206331491219
 H   -4.035358285802    0.249876791971    1.185341491219
NA   -0.505848285802    0.948256791971    1.676561491219
NA   -0.077288285802   -0.241383208029   -1.931018508781
 P    1.977127681496   -2.396651474334    0.862737720691
 O    0.555914168171   -2.699145717409   -0.017204902923
 O    2.498743733270   -1.326148509992   -0.348857701373
 O    2.857786191286   -3.621963959632    0.944127062784
 O    1.590362456236   -1.556200185292    2.092342923744
 C   -0.157368737095   -3.883529054157    0.401419145106
 H    0.520291059961   -4.747830439450    0.402532219671
 H   -0.579110295924   -3.739944029038    1.407303539566
 H   -0.969538855671   -4.040918437658   -0.318506802025
 C    3.886725412895   -0.943635071043   -0.233370695401
 H    4.035328940943   -0.308632370775    0.652381282133
 H    4.517308343304   -1.840263754635   -0.159519533336
 H    4.142608885118   -0.379883177323   -1.138525272183
