28

 P   -1.947564570850    2.360817251144   -0.849837629597
 O   -2.828224570850    3.586127251144   -0.931227629597
 O   -1.560804570850    1.520357251144   -2.079447629597
 O   -0.526354570850    2.663307251144    0.030102370403
 O   -2.469174570850    1.290317251144    0.361762370403
 C    0.186935429150    3.847697251144   -0.388527629597
 H   -0.490724570850    4.711997251144   -0.389637629597
 H    0.608675429150    3.704107251144   -1.394417629597
 H    0.999105429150    4.005087251144    0.331392370403
 C   -3.857164570850    0.907797251144    0.246282370403
 H   -4.005764570850    0.272787251144   -0.639467629597
 H   -4.487744570850    1.804427251144    0.172432370403
 H   -4.113044570850    0.344047251144    1.151442370403
NA   -0.583534570850    1.042427251144    1.642662370403
NA   -0.154974570850   -0.147212748856   -1.964917629597
 P    2.083389718120   -2.525461144862    0.909106131994
 O    0.662176204796   -2.827955387937    0.029163508380
 O    2.605005769895   -1.454958180520   -0.302489290070
 O    2.964048227911   -3.750773630160    0.990495474087
 O    1.696624492860   -1.685009855820    2.138711335048
 C   -0.051106700470   -4.012338724685    0.447787556409
 H    0.626553096586   -4.876640109977    0.448900630975
 H   -0.472848259299   -3.868753699566    1.453671950869
 H   -0.863276819047   -4.169728108186   -0.272138390722
 C    3.992987449520   -1.072444741571   -0.187002284097
 H    4.141590977568   -0.437442041303    0.698749693436
 H    4.623570379929   -1.969073425162   -0.113151122033
 H    4.248870921743   -0.508692847851   -1.092156860880
