28

 P   -1.973459999199    2.392207404202   -0.861137336536
 O   -2.854119999199    3.617517404202   -0.942527336536
 O   -1.586699999199    1.551747404202   -2.090747336536
 O   -0.552249999199    2.694697404202    0.018802663464
 O   -2.495069999199    1.321707404202    0.350462663464
 C    0.161040000801    3.879087404202   -0.399827336536
 H   -0.516619999199    4.743387404202   -0.400937336536
 H    0.582780000801    3.735497404202   -1.405717336536
 H    0.973210000801    4.036477404202    0.320092663464
 C   -3.883059999199    0.939187404202    0.234982663464
 H   -4.031659999199    0.304177404202   -0.650767336536
 H   -4.513639999199    1.835817404202    0.161132663464
 H   -4.138939999199    0.375437404202    1.140142663464
NA   -0.609429999199    1.073817404202    1.631362663464
NA   -0.180869999199   -0.115822595798   -1.976217336536
 P    2.118810396995   -2.568397701705    0.924562269095
 O    0.697596883671   -2.870891944779    0.044619645481
 O    2.640426448770   -1.497894737363   -0.287033152969
 O    2.999468906786   -3.793710187003    1.005951611188
 O    1.732045171735   -1.727946412663    2.154167472149
 C   -0.015686021596   -4.055275281527    0.463243693510
 H    0.661973775460   -4.919576666820    0.464356768076
 H   -0.437427580424   -3.911690256408    1.469128087970
 H   -0.827856140172   -4.212664665029   -0.256682253621
 C    4.028408128395   -1.115381298414   -0.171546146996
 H    4.177011656443   -0.480378598146    0.714205830537
 H    4.658991058804   -2.012009982005   -0.097694984932
 H    4.284291600618   -0.551629404694   -1.076700723779
