28

 P   -1.999355427549    2.423597557259   -0.872437043475
 O   -2.880015427549    3.648907557259   -0.953827043475
 O   -1.612595427549    1.583137557259   -2.102047043475
 O   -0.578145427549    2.726087557259    0.007502956525
 O   -2.520965427549    1.353097557259    0.339162956525
 C    0.135144572451    3.910477557259   -0.411127043475
 H   -0.542515427549    4.774777557259   -0.412237043475
 H    0.556884572451    3.766887557259   -1.417017043475
 H    0.947314572451    4.067867557259    0.308792956525
 C   -3.908955427549    0.970577557259    0.223682956525
 H   -4.057555427549    0.335567557259   -0.662067043475
 H   -4.539535427549    1.867207557259    0.149832956525
 H   -4.164835427549    0.406827557259    1.128842956525
NA   -0.635325427549    1.105207557259    1.620062956525
NA   -0.206765427549   -0.084432442741   -1.987517043475
 P    2.154231075870   -2.611334258548    0.940018406196
 O    0.733017562546   -2.913828501622    0.060075782582
 O    2.675847127645   -1.540831294205   -0.271577015868
 O    3.034889585661   -3.836646743845    1.021407748289
 O    1.767465850610   -1.770882969505    2.169623609250
 C    0.019734657279   -4.098211838370    0.478699830611
 H    0.697394454335   -4.962513223663    0.479812905177
 H   -0.402006901549   -3.954626813251    1.484584225071
 H   -0.792435461297   -4.255601221871   -0.241226116520
 C    4.063828807270   -1.158317855256   -0.156090009895
 H    4.212432335318   -0.523315154988    0.729661967638
 H    4.694411737679   -2.054946538848   -0.082238847831
 H    4.319712279492   -0.594565961536   -1.061244586678
