28

 P   -2.102937140946    2.549158169489   -0.917635871230
 O   -2.983597140946    3.774468169489   -0.999025871230
 O   -1.716177140946    1.708698169489   -2.147245871230
 O   -0.681727140946    2.851648169489   -0.037695871230
 O   -2.624547140946    1.478658169489    0.293964128770
 C    0.031562859054    4.036038169489   -0.456325871230
 H   -0.646097140946    4.900338169489   -0.457435871230
 H    0.453302859054    3.892448169489   -1.462215871230
 H    0.843732859054    4.193428169489    0.263594128770
 C   -4.012537140946    1.096138169489    0.178484128770
 H   -4.161137140946    0.461128169489   -0.707265871230
 H   -4.643117140946    1.992768169489    0.104634128770
 H   -4.268417140946    0.532388169489    1.083644128770
NA   -0.738907140946    1.230768169489    1.574864128770
NA   -0.310347140946    0.041128169489   -2.032715871230
 P    2.295913791370   -2.783080485918    1.001842954600
 O    0.874700278046   -3.085574728992    0.121900330986
 O    2.817529843145   -1.712577521576   -0.209752467464
 O    3.176572301161   -4.008392971216    1.083232296693
 O    1.909148566110   -1.942629196876    2.231448157654
 C    0.161417372779   -4.269958065740    0.540524379015
 H    0.839077169835   -5.134259451033    0.541637453581
 H   -0.260324186050   -4.126373040621    1.546408773475
 H   -0.650752745797   -4.427347449242   -0.179401568116
 C    4.205511522770   -1.330064082627   -0.094265461491
 H    4.354115050817   -0.695061382359    0.791486516042
 H    4.836094453178   -2.226692766218   -0.020414299427
 H    4.461394994992   -0.766312188907   -0.999420038274
