28

 P   -2.128832569295    2.580548322547   -0.928935578168
 O   -3.009492569295    3.805858322547   -1.010325578168
 O   -1.742072569295    1.740088322547   -2.158545578168
 O   -0.707622569295    2.883038322547   -0.048995578168
 O   -2.650442569295    1.510048322547    0.282664421832
 C    0.005667430705    4.067428322547   -0.467625578168
 H   -0.671992569295    4.931728322547   -0.468735578168
 H    0.427407430705    3.923838322547   -1.473515578168
 H    0.817837430705    4.224818322547    0.252294421832
 C   -4.038432569295    1.127528322547    0.167184421832
 H   -4.187032569295    0.492518322547   -0.718565578168
 H   -4.669012569295    2.024158322547    0.093334421832
 H   -4.294312569295    0.563778322547    1.072344421832
NA   -0.764802569295    1.262158322547    1.563564421832
NA   -0.336242569295    0.072518322547   -2.044015578168
 P    2.331334470245   -2.826017042761    1.017299091701
 O    0.910120956920   -3.128511285835    0.137356468088
 O    2.852950522019   -1.755514078418   -0.194296330363
 O    3.211992980036   -4.051329528058    1.098688433794
 O    1.944569244985   -1.985565753718    2.246904294755
 C    0.196838051654   -4.312894622583    0.555980516116
 H    0.874497848710   -5.177196007876    0.557093590682
 H   -0.224903507175   -4.169309597464    1.561864910576
 H   -0.615332066922   -4.470284006084   -0.163945431015
 C    4.240932201645   -1.373000639469   -0.078809324390
 H    4.389535729692   -0.737997939201    0.806942653143
 H    4.871515132053   -2.269629323061   -0.004958162326
 H    4.496815673867   -0.809248745749   -0.983963901173
