28

 P   -2.310100567741    2.800279393950   -1.008033526740
 O   -3.190760567741    4.025589393950   -1.089423526740
 O   -1.923340567741    1.959819393950   -2.237643526740
 O   -0.888890567741    3.102769393950   -0.128093526740
 O   -2.831710567741    1.729779393950    0.203566473260
 C   -0.175600567741    4.287159393950   -0.546723526740
 H   -0.853260567741    5.151459393950   -0.547833526740
 H    0.246139432259    4.143569393950   -1.552613526740
 H    0.636569432259    4.444549393950    0.173196473260
 C   -4.219700567741    1.347259393950    0.088086473260
 H   -4.368300567741    0.712249393950   -0.797663526740
 H   -4.850280567741    2.243889393950    0.014236473260
 H   -4.475580567741    0.783509393950    0.993246473260
NA   -0.946070567741    1.481889393950    1.484466473260
NA   -0.517510567741    0.292249393950   -2.123113526740
 P    2.579279222369   -3.126572940659    1.125492051408
 O    1.158065709045   -3.429067183733    0.245549427795
 O    3.100895274144   -2.056069976317   -0.086103370655
 O    3.459937732160   -4.351885425957    1.206881393501
 O    2.192513997109   -2.286121651617    2.355097254462
 C    0.444782803778   -4.613450520481    0.664173475823
 H    1.122442600834   -5.477751905774    0.665286550389
 H    0.023041244950   -4.469865495362    1.670057870284
 H   -0.367387314798   -4.770839903983   -0.055752471308
 C    4.488876953769   -1.673556537368    0.029383635317
 H    4.637480481817   -1.038553837100    0.915135612850
 H    5.119459884178   -2.570185220959    0.103234797381
 H    4.744760425991   -1.109804643648   -0.875770941466
