28

 P   -2.361891424440    2.863059700065   -1.030632940617
 O   -3.242551424440    4.088369700065   -1.112022940617
 O   -1.975131424440    2.022599700065   -2.260242940617
 O   -0.940681424440    3.165549700065   -0.150692940617
 O   -2.883501424440    1.792559700065    0.180967059383
 C   -0.227391424440    4.349939700065   -0.569322940617
 H   -0.905051424440    5.214239700065   -0.570432940617
 H    0.194348575560    4.206349700065   -1.575212940617
 H    0.584778575560    4.507329700065    0.150597059383
 C   -4.271491424440    1.410039700065    0.065487059383
 H   -4.420091424440    0.775029700065   -0.820262940617
 H   -4.902071424440    2.306669700065   -0.008362940617
 H   -4.527371424440    0.846289700065    0.970647059383
NA   -0.997861424440    1.544669700065    1.461867059383
NA   -0.569301424440    0.355029700065   -2.145712940617
 P    2.650120580119   -3.212446054344    1.156404325610
 O    1.228907066795   -3.514940297418    0.276461701997
 O    3.171736631894   -2.141943090002   -0.055191096453
 O    3.530779089910   -4.437758539642    1.237793667703
 O    2.263355354859   -2.371994765302    2.386009528664
 C    0.515624161528   -4.699323634166    0.695085750026
 H    1.193283958584   -5.563625019459    0.696198824591
 H    0.093882602699   -4.555738609048    1.700970144486
 H   -0.296545957048   -4.856713017668   -0.024840197106
 C    4.559718311519   -1.759429651053    0.060295909519
 H    4.708321839567   -1.124426950785    0.946047887053
 H    5.190301241927   -2.656058334644    0.134147071584
 H    4.815601783741   -1.195677757333   -0.844858667264
