28

 P   -2.439577709488    2.957230159238   -1.064532061433
 O   -3.320237709488    4.182540159238   -1.145922061433
 O   -2.052817709488    2.116770159238   -2.294142061433
 O   -1.018367709488    3.259720159238   -0.184592061433
 O   -2.961187709488    1.886730159238    0.147067938567
 C   -0.305077709488    4.444110159238   -0.603222061433
 H   -0.982737709488    5.308410159238   -0.604332061433
 H    0.116662290512    4.300520159238   -1.609112061433
 H    0.507092290512    4.601500159238    0.116697938567
 C   -4.349177709488    1.504210159238    0.031587938567
 H   -4.497777709488    0.869200159238   -0.854162061433
 H   -4.979757709488    2.400840159238   -0.042262061433
 H   -4.605057709488    0.940460159238    0.936747938567
NA   -1.075547709488    1.638840159238    1.427967938567
NA   -0.646987709488    0.449200159238   -2.179612061433
 P    2.756382616744   -3.341255724872    1.202772736913
 O    1.335169103419   -3.643749967946    0.322830113300
 O    3.277998668518   -2.270752760530   -0.008822685150
 O    3.637041126534   -4.566568210170    1.284162079007
 O    2.369617391484   -2.500804435830    2.432377939967
 C    0.621886198153   -4.828133304694    0.741454161329
 H    1.299545995209   -5.692434689987    0.742567235894
 H    0.200144639324   -4.684548279575    1.747338555789
 H   -0.190283920424   -4.985522688196    0.021528214198
 C    4.665980348143   -1.888239321581    0.106664320822
 H    4.814583876191   -1.253236621313    0.992416298356
 H    5.296563278552   -2.784868005172    0.180515482887
 H    4.921863820366   -1.324487427861   -0.798490255960
