28

 P   -2.569054851234    3.114180924525   -1.121030596127
 O   -3.449714851234    4.339490924525   -1.202420596127
 O   -2.182294851234    2.273720924525   -2.350640596127
 O   -1.147844851234    3.416670924525   -0.241090596127
 O   -3.090664851234    2.043680924525    0.090569403873
 C   -0.434554851234    4.601060924525   -0.659720596127
 H   -1.112214851234    5.465360924525   -0.660830596127
 H   -0.012814851234    4.457470924525   -1.665610596127
 H    0.377615148766    4.758450924525    0.060199403873
 C   -4.478654851234    1.661160924525   -0.024910596127
 H   -4.627254851234    1.026150924525   -0.910660596127
 H   -5.109234851234    2.557790924525   -0.098760596127
 H   -4.734534851234    1.097410924525    0.880249403873
NA   -1.205024851234    1.795790924525    1.371469403873
NA   -0.776464851234    0.606150924525   -2.236110596127
 P    2.933486011118   -3.555938509085    1.280053422419
 O    1.512272497794   -3.858432752159    0.400110798805
 O    3.455102062893   -2.485435544743    0.068458000355
 O    3.814144520909   -4.781250994383    1.361442764512
 O    2.546720785858   -2.715487220043    2.509658625472
 C    0.798989592527   -5.042816088907    0.818734846834
 H    1.476649389583   -5.907117474200    0.819847921399
 H    0.377248033699   -4.899231063788    1.824619241294
 H   -0.013180526049   -5.200205472409    0.098808899703
 C    4.843083742518   -2.102922105794    0.183945006327
 H    4.991687270566   -1.467919405526    1.069696983861
 H    5.473666672927   -2.999550789385    0.257796168392
 H    5.098967214740   -1.539170212074   -0.721209570455
