28

 P   -2.594950279584    3.145571077583   -1.132330303066
 O   -3.475610279584    4.370881077583   -1.213720303066
 O   -2.208190279584    2.305111077583   -2.361940303066
 O   -1.173740279584    3.448061077583   -0.252390303066
 O   -3.116560279584    2.075071077583    0.079269696934
 C   -0.460450279584    4.632451077583   -0.671020303066
 H   -1.138110279584    5.496751077583   -0.672130303066
 H   -0.038710279584    4.488861077583   -1.676910303066
 H    0.351719720416    4.789841077583    0.048899696934
 C   -4.504550279584    1.692551077583   -0.036210303066
 H   -4.653150279584    1.057541077583   -0.921960303066
 H   -5.135130279584    2.589181077583   -0.110060303066
 H   -4.760430279584    1.128801077583    0.868949696934
NA   -1.230920279584    1.827181077583    1.360169696934
NA   -0.802360279584    0.637541077583   -2.247410303066
 P    2.968906689993   -3.598875065928    1.295509559520
 O    1.547693176669   -3.901369309002    0.415566935906
 O    3.490522741768   -2.528372101585    0.083914137456
 O    3.849565199784   -4.824187551225    1.376898901613
 O    2.582141464733   -2.758423776885    2.525114762574
 C    0.834410271402   -5.085752645750    0.834190983935
 H    1.512070068458   -5.950054031043    0.835304058501
 H    0.412668712574   -4.942167620631    1.840075378395
 H    0.022240152826   -5.243142029251    0.114265036804
 C    4.878504421393   -2.145858662636    0.199401143429
 H    5.027107949441   -1.510855962368    1.085153120962
 H    5.509087351802   -3.042487346228    0.273252305493
 H    5.134387893615   -1.582106768916   -0.705753433354
