28

 P   -2.620845707933    3.176961230640   -1.143630010004
 O   -3.501505707933    4.402271230640   -1.225020010004
 O   -2.234085707933    2.336501230640   -2.373240010004
 O   -1.199635707933    3.479451230640   -0.263690010004
 O   -3.142455707933    2.106461230640    0.067969989996
 C   -0.486345707933    4.663841230640   -0.682320010004
 H   -1.164005707933    5.528141230640   -0.683430010004
 H   -0.064605707933    4.520251230640   -1.688210010004
 H    0.325824292067    4.821231230640    0.037599989996
 C   -4.530445707933    1.723941230640   -0.047510010004
 H   -4.679045707933    1.088931230640   -0.933260010004
 H   -5.161025707933    2.620571230640   -0.121360010004
 H   -4.786325707933    1.160191230640    0.857649989996
NA   -1.256815707933    1.858571230640    1.348869989996
NA   -0.828255707933    0.668931230640   -2.258710010004
 P    3.004327368868   -3.641811622770    1.310965696621
 O    1.583113855544   -3.944305865844    0.431023073007
 O    3.525943420643   -2.571308658428    0.099370274557
 O    3.884985878659   -4.867124108068    1.392355038714
 O    2.617562143608   -2.801360333728    2.540570899675
 C    0.869830950277   -5.128689202593    0.849647121036
 H    1.547490747333   -5.992990587885    0.850760195602
 H    0.448089391449   -4.985104177474    1.855531515496
 H    0.057660831701   -5.286078586094    0.129721173905
 C    4.913925100268   -2.188795219479    0.214857280530
 H    5.062528628316   -1.553792519211    1.100609258063
 H    5.544508030677   -3.085423903070    0.288708442594
 H    5.169808572490   -1.625043325759   -0.690297296253
