28

 P   -2.698531992981    3.271131689813   -1.177529130821
 O   -3.579191992981    4.496441689813   -1.258919130821
 O   -2.311771992981    2.430671689813   -2.407139130821
 O   -1.277321992981    3.573621689813   -0.297589130821
 O   -3.220141992981    2.200631689813    0.034070869179
 C   -0.564031992981    4.758011689813   -0.716219130821
 H   -1.241691992981    5.622311689813   -0.717329130821
 H   -0.142291992981    4.614421689813   -1.722109130821
 H    0.248138007019    4.915401689813    0.003700869179
 C   -4.608131992981    1.818111689813   -0.081409130821
 H   -4.756731992981    1.183101689813   -0.967159130821
 H   -5.238711992981    2.714741689813   -0.155259130821
 H   -4.864011992981    1.254361689813    0.823750869179
NA   -1.334501992981    1.952741689813    1.314970869179
NA   -0.905941992981    0.763101689813   -2.292609130821
 P    3.110589405493   -3.770621293298    1.357334107924
 O    1.689375892168   -4.073115536372    0.477391484310
 O    3.632205457267   -2.700118328956    0.145738685860
 O    3.991247915284   -4.995933778596    1.438723450017
 O    2.723824180233   -2.930170004256    2.586939310978
 C    0.976092986902   -5.257498873120    0.896015532339
 H    1.653752783958   -6.121800258413    0.897128606905
 H    0.554351428073   -5.113913848002    1.901899926799
 H    0.163922868326   -5.414888256622    0.176089585208
 C    5.020187136893   -2.317604890007    0.261225691833
 H    5.168790664940   -1.682602189739    1.146977669366
 H    5.650770067301   -3.214233573598    0.335076853897
 H    5.276070609115   -1.753852996287   -0.643928884950
