28

 P   -2.750322849680    3.333911995928   -1.200128544698
 O   -3.630982849680    4.559221995928   -1.281518544698
 O   -2.363562849680    2.493451995928   -2.429738544698
 O   -1.329112849680    3.636401995928   -0.320188544698
 O   -3.271932849680    2.263411995928    0.011471455302
 C   -0.615822849680    4.820791995928   -0.738818544698
 H   -1.293482849680    5.685091995928   -0.739928544698
 H   -0.194082849680    4.677201995928   -1.744708544698
 H    0.196347150320    4.978181995928   -0.018898544698
 C   -4.659922849680    1.880891995928   -0.104008544698
 H   -4.808522849680    1.245881995928   -0.989758544698
 H   -5.290502849680    2.777521995928   -0.177858544698
 H   -4.915802849680    1.317141995928    0.801151455302
NA   -1.386292849680    2.015521995928    1.292371455302
NA   -0.957732849680    0.825881995928   -2.315208544698
 P    3.181430763242   -3.856494406983    1.388246382126
 O    1.760217249918   -4.158988650057    0.508303758512
 O    3.703046815017   -2.785991442641    0.176650960062
 O    4.062089273033   -5.081806892281    1.469635724219
 O    2.794665537983   -3.016043117941    2.617851585180
 C    1.046934344652   -5.343371986806    0.926927806541
 H    1.724594141708   -6.207673372098    0.928040881107
 H    0.625192785823   -5.199786961687    1.932812201001
 H    0.234764226075   -5.500761370307    0.207001859410
 C    5.091028494642   -2.403478003692    0.292137966035
 H    5.239632022690   -1.768475303424    1.177889943568
 H    5.721611425051   -3.300106687283    0.365989128099
 H    5.346911966865   -1.839726109972   -0.613016610748
