28

 P   -2.776218278029    3.365302148986   -1.211428251637
 O   -3.656878278029    4.590612148986   -1.292818251637
 O   -2.389458278029    2.524842148986   -2.441038251637
 O   -1.355008278029    3.667792148986   -0.331488251637
 O   -3.297828278029    2.294802148986    0.000171748363
 C   -0.641718278029    4.852182148986   -0.750118251637
 H   -1.319378278029    5.716482148986   -0.751228251637
 H   -0.219978278029    4.708592148986   -1.756008251637
 H    0.170451721971    5.009572148986   -0.030198251637
 C   -4.685818278029    1.912282148986   -0.115308251637
 H   -4.834418278029    1.277272148986   -1.001058251637
 H   -5.316398278029    2.808912148986   -0.189158251637
 H   -4.941698278029    1.348532148986    0.789851748363
NA   -1.412188278029    2.046912148986    1.281071748363
NA   -0.983628278029    0.857272148986   -2.326508251637
 P    3.216851442117   -3.899430963826    1.403702519227
 O    1.795637928793   -4.201925206900    0.523759895613
 O    3.738467493892   -2.828927999484    0.192107097163
 O    4.097509951908   -5.124743449124    1.485091861320
 O    2.830086216857   -3.058979674784    2.633307722281
 C    1.082355023527   -5.386308543648    0.942383943642
 H    1.760014820583   -6.250609928941    0.943497018208
 H    0.660613464698   -5.242723518529    1.948268338102
 H    0.270184904950   -5.543697927150    0.222457996511
 C    5.126449173517   -2.446414560535    0.307594103136
 H    5.275052701565   -1.811411860267    1.193346080669
 H    5.757032103926   -3.343043244126    0.381445265200
 H    5.382332645740   -1.882662666815   -0.597560473647
