28

 P   -2.879799991427    3.490862761216   -1.256627079392
 O   -3.760459991427    4.716172761216   -1.338017079392
 O   -2.493039991427    2.650402761216   -2.486237079392
 O   -1.458589991427    3.793352761216   -0.376687079392
 O   -3.401409991427    2.420362761216   -0.045027079392
 C   -0.745299991427    4.977742761216   -0.795317079392
 H   -1.422959991427    5.842042761216   -0.796427079392
 H   -0.323559991427    4.834152761216   -1.801207079392
 H    0.066870008573    5.135132761216   -0.075397079392
 C   -4.789399991427    2.037842761216   -0.160507079392
 H   -4.937999991427    1.402832761216   -1.046257079392
 H   -5.419979991427    2.934472761216   -0.234357079392
 H   -5.045279991427    1.474092761216    0.744652920608
NA   -1.515769991427    2.172472761216    1.235872920608
NA   -1.087209991427    0.982832761216   -2.371707079392
 P    3.358534157617   -4.071177191196    1.465527067631
 O    1.937320644293   -4.373671434271    0.585584444018
 O    3.880150209392   -3.000674226854    0.253931645568
 O    4.239192667408   -5.296489676494    1.546916409724
 O    2.971768932357   -3.230725902154    2.695132270685
 C    1.224037739026   -5.558054771019    1.004208492046
 H    1.901697536082   -6.422356156311    1.005321566612
 H    0.802296180198   -5.414469745900    2.010092886506
 H    0.411867620450   -5.715444154520    0.284282544915
 C    5.268131889017   -2.618160787905    0.369418651540
 H    5.416735417065   -1.983158087637    1.255170629073
 H    5.898714819426   -3.514789471496    0.443269813604
 H    5.524015361239   -2.054408894185   -0.535735925243
