28

 P   -2.983381704824    3.616423373446   -1.301825907147
 O   -3.864041704824    4.841733373446   -1.383215907147
 O   -2.596621704824    2.775963373446   -2.531435907147
 O   -1.562171704824    3.918913373446   -0.421885907147
 O   -3.504991704824    2.545923373446   -0.090225907147
 C   -0.848881704824    5.103303373446   -0.840515907147
 H   -1.526541704824    5.967603373446   -0.841625907147
 H   -0.427141704824    4.959713373446   -1.846405907147
 H   -0.036711704824    5.260693373446   -0.120595907147
 C   -4.892981704824    2.163403373446   -0.205705907147
 H   -5.041581704824    1.528393373446   -1.091455907147
 H   -5.523561704824    3.060033373446   -0.279555907147
 H   -5.148861704824    1.599653373446    0.699454092853
NA   -1.619351704824    2.298033373446    1.190674092853
NA   -1.190791704824    1.108393373446   -2.416905907147
 P    3.500216873117   -4.242923418567    1.527351616035
 O    2.079003359792   -4.545417661641    0.647408992422
 O    4.021832924891   -3.172420454225    0.315756193972
 O    4.380875382908   -5.468235903864    1.608740958128
 O    3.113451647857   -3.402472129525    2.756956819089
 C    1.365720454526   -5.729800998389    1.066033040450
 H    2.043380251582   -6.594102383682    1.067146115016
 H    0.943978895697   -5.586215973270    2.071917434911
 H    0.553550335950   -5.887190381891    0.346107093319
 C    5.409814604517   -2.789907015275    0.431243199944
 H    5.558418132564   -2.154904315008    1.316995177477
 H    6.040397534925   -3.686535698867    0.505094362008
 H    5.665698076739   -2.226155121556   -0.473911376839
