28

 P   -3.035172561523    3.679203679561   -1.324425321024
 O   -3.915832561523    4.904513679561   -1.405815321024
 O   -2.648412561523    2.838743679561   -2.554035321024
 O   -1.613962561523    3.981693679561   -0.444485321024
 O   -3.556782561523    2.608703679561   -0.112825321024
 C   -0.900672561523    5.166083679561   -0.863115321024
 H   -1.578332561523    6.030383679561   -0.864225321024
 H   -0.478932561523    5.022493679561   -1.869005321024
 H   -0.088502561523    5.323473679561   -0.143195321024
 C   -4.944772561523    2.226183679561   -0.228305321024
 H   -5.093372561523    1.591173679561   -1.114055321024
 H   -5.575352561523    3.122813679561   -0.302155321024
 H   -5.200652561523    1.662433679561    0.676854678976
NA   -1.671142561523    2.360813679561    1.168074678976
NA   -1.242582561523    1.171173679561   -2.439505321024
 P    3.571058230866   -4.328796532252    1.558263890237
 O    2.149844717542   -4.631290775326    0.678321266624
 O    4.092674282641   -3.258293567910    0.346668468174
 O    4.451716740657   -5.554109017550    1.639653232330
 O    3.184293005607   -3.488345243210    2.787869093291
 C    1.436561812276   -5.815674112074    1.096945314653
 H    2.114221609332   -6.679975497367    1.098058389218
 H    1.014820253447   -5.672089086955    2.102829709113
 H    0.624391693699   -5.973063495576    0.377019367521
 C    5.480655962266   -2.875780128961    0.462155474146
 H    5.629259490314   -2.240777428693    1.347907451679
 H    6.111238892675   -3.772408812552    0.536006636211
 H    5.736539434489   -2.312028235241   -0.442999102637
