28

 P   -3.112858846571    3.773374138734   -1.358324441841
 O   -3.993518846571    4.998684138734   -1.439714441841
 O   -2.726098846571    2.932914138734   -2.587934441841
 O   -1.691648846571    4.075864138734   -0.478384441841
 O   -3.634468846571    2.702874138734   -0.146724441841
 C   -0.978358846571    5.260254138734   -0.897014441841
 H   -1.656018846571    6.124554138734   -0.898124441841
 H   -0.556618846571    5.116664138734   -1.902904441841
 H   -0.166188846571    5.417644138734   -0.177094441841
 C   -5.022458846571    2.320354138734   -0.262204441841
 H   -5.171058846571    1.685344138734   -1.147954441841
 H   -5.653038846571    3.216984138734   -0.336054441841
 H   -5.278338846571    1.756604138734    0.642955558159
NA   -1.748828846571    2.454984138734    1.134175558159
NA   -1.320268846571    1.265344138734   -2.473404441841
 P    3.677320267491   -4.457606202780    1.604632301540
 O    2.256106754167   -4.760100445854    0.724689677927
 O    4.198936319266   -3.387103238438    0.393036879477
 O    4.557978777282   -5.682918688078    1.686021643633
 O    3.290555042231   -3.617154913738    2.834237504594
 C    1.542823848900   -5.944483782602    1.143313725956
 H    2.220483645956   -6.808785167895    1.144426800521
 H    1.121082290072   -5.800898757483    2.149198120416
 H    0.730653730324   -6.101873166104    0.423387778824
 C    5.586917998891   -3.004589799489    0.508523885449
 H    5.735521526939   -2.369587099221    1.394275862983
 H    6.217500929300   -3.901218483080    0.582375047514
 H    5.842801471114   -2.440837905769   -0.396630691333
