28

 P   -3.242335988317    3.930324904022   -1.414822976534
 O   -4.122995988317    5.155634904022   -1.496212976534
 O   -2.855575988317    3.089864904022   -2.644432976534
 O   -1.821125988317    4.232814904022   -0.534882976534
 O   -3.763945988317    2.859824904022   -0.203222976534
 C   -1.107835988317    5.417204904022   -0.953512976534
 H   -1.785495988317    6.281504904022   -0.954622976534
 H   -0.686095988317    5.273614904022   -1.959402976534
 H   -0.295665988317    5.574594904022   -0.233592976534
 C   -5.151935988317    2.477304904022   -0.318702976534
 H   -5.300535988317    1.842294904022   -1.204452976534
 H   -5.782515988317    3.373934904022   -0.392552976534
 H   -5.407815988317    1.913554904022    0.586457023466
NA   -1.878305988317    2.611934904022    1.077677023466
NA   -1.449745988317    1.422294904022   -2.529902976534
 P    3.854423661866   -4.672288986993    1.681912987046
 O    2.433210148542   -4.974783230067    0.801970363432
 O    4.376039713641   -3.601786022651    0.470317564982
 O    4.735082171657   -5.897601472291    1.763302329139
 O    3.467658436606   -3.831837697951    2.911518190099
 C    1.719927243275   -6.159166566815    1.220594411461
 H    2.397587040331   -7.023467952108    1.221707486026
 H    1.298185684446   -6.015581541696    2.226478805921
 H    0.907757124699   -6.316555950317    0.500668464330
 C    5.764021393266   -3.219272583702    0.585804570954
 H    5.912624921313   -2.584269883434    1.471556548488
 H    6.394604323674   -4.115901267293    0.659655733019
 H    6.019904865488   -2.655520689982   -0.319350005828
