28

 P   -3.268231416667    3.961715057079   -1.426122683473
 O   -4.148891416667    5.187025057079   -1.507512683473
 O   -2.881471416667    3.121255057079   -2.655732683473
 O   -1.847021416667    4.264205057079   -0.546182683473
 O   -3.789841416667    2.891215057079   -0.214522683473
 C   -1.133731416667    5.448595057079   -0.964812683473
 H   -1.811391416667    6.312895057079   -0.965922683473
 H   -0.711991416667    5.305005057079   -1.970702683473
 H   -0.321561416667    5.605985057079   -0.244892683473
 C   -5.177831416667    2.508695057079   -0.330002683473
 H   -5.326431416667    1.873685057079   -1.215752683473
 H   -5.808411416667    3.405325057079   -0.403852683473
 H   -5.433711416667    1.944945057079    0.575157316527
NA   -1.904201416667    2.643325057079    1.066377316527
NA   -1.475641416667    1.453685057079   -2.541202683473
 P    3.889844340741   -4.715225543836    1.697369124147
 O    2.468630827416   -5.017719786910    0.817426500533
 O    4.411460392515   -3.644722579493    0.485773702083
 O    4.770502850532   -5.940538029133    1.778758466240
 O    3.503079115481   -3.874774254793    2.926974327200
 C    1.755347922150   -6.202103123658    1.236050548562
 H    2.433007719206   -7.066404508951    1.237163623127
 H    1.333606363321   -6.058518098539    2.241934943022
 H    0.943177803574   -6.359492507159    0.516124601431
 C    5.799442072141   -3.262209140544    0.601260708055
 H    5.948045600188   -2.627206440276    1.487012685589
 H    6.430025002549   -4.158837824136    0.675111870120
 H    6.055325544363   -2.698457246824   -0.303893868727
