28

 P   -3.423603986763    4.150055975424   -1.493920925105
 O   -4.304263986763    5.375365975424   -1.575310925105
 O   -3.036843986763    3.309595975424   -2.723530925105
 O   -2.002393986763    4.452545975424   -0.613980925105
 O   -3.945213986763    3.079555975424   -0.282320925105
 C   -1.289103986763    5.636935975424   -1.032610925105
 H   -1.966763986763    6.501235975424   -1.033720925105
 H   -0.867363986763    5.493345975424   -2.038500925105
 H   -0.476933986763    5.794325975424   -0.312690925105
 C   -5.333203986763    2.697035975424   -0.397800925105
 H   -5.481803986763    2.062025975424   -1.283550925105
 H   -5.963783986763    3.593665975424   -0.471650925105
 H   -5.589083986763    2.133285975424    0.507359074895
NA   -2.059573986763    2.831665975424    0.998579074895
NA   -1.631013986763    1.642025975424   -2.609000925105
 P    4.102368413990   -4.972844884891    1.790105946753
 O    2.681154900666   -5.275339127965    0.910163323139
 O    4.623984465765   -3.902341920549    0.578510524689
 O    4.983026923781   -6.198157370189    1.871495288846
 O    3.715603188730   -4.132393595849    3.019711149807
 C    1.967871995399   -6.459722464713    1.328787371168
 H    2.645531792455   -7.324023850006    1.329900445734
 H    1.546130436571   -6.316137439595    2.334671765628
 H    1.155701876823   -6.617111848215    0.608861424037
 C    6.011966145390   -3.519828481600    0.693997530662
 H    6.160569673438   -2.884825781332    1.579749508195
 H    6.642549075799   -4.416457165191    0.767848692726
 H    6.267849617612   -2.956076587880   -0.211157046121
