28

 P   -3.475394843462    4.212836281539   -1.516520338983
 O   -4.356054843462    5.438146281539   -1.597910338983
 O   -3.088634843462    3.372376281539   -2.746130338983
 O   -2.054184843462    4.515326281539   -0.636580338983
 O   -3.997004843462    3.142336281539   -0.304920338983
 C   -1.340894843462    5.699716281539   -1.055210338983
 H   -2.018554843462    6.564016281539   -1.056320338983
 H   -0.919154843462    5.556126281539   -2.061100338983
 H   -0.528724843462    5.857106281539   -0.335290338983
 C   -5.384994843462    2.759816281539   -0.420400338983
 H   -5.533594843462    2.124806281539   -1.306150338983
 H   -6.015574843462    3.656446281539   -0.494250338983
 H   -5.640874843462    2.196066281539    0.484759661017
NA   -2.111364843462    2.894446281539    0.975979661017
NA   -1.682804843462    1.704806281539   -2.631600338983
 P    4.173209771740   -5.058717998576    1.821018220955
 O    2.751996258416   -5.361212241651    0.941075597341
 O    4.694825823515   -3.988215034234    0.609422798891
 O    5.053868281531   -6.284030483874    1.902407563048
 O    3.786444546480   -4.218266709534    3.050623424009
 C    2.038713353149   -6.545595578399    1.359699645370
 H    2.716373150205   -7.409896963692    1.360812719936
 H    1.616971794321   -6.402010553280    2.365584039830
 H    1.226543234573   -6.702984961900    0.639773698239
 C    6.082807503140   -3.605701595285    0.724909804864
 H    6.231411031188   -2.970698895017    1.610661782397
 H    6.713390433548   -4.502330278877    0.798760966928
 H    6.338690975362   -3.041949701565   -0.180244771919
