9

 C   -1.004864637580   -1.711292875907    0.703043506707
 H   -1.983791637580   -1.219504875907    0.703043506707
 H   -0.897718637580   -2.351101875907    1.591315506707
 H   -0.897718637580   -2.351101875907   -0.185228493293
 C    0.079762362420   -0.665708875907    0.703043506707
 O   -0.081341637580    0.543842124093    0.703043506707
 O    1.322048362420   -1.242716875907    0.703043506707
 H    1.956584362420   -0.504153875907    0.703043506707
RB   -0.081341637580    0.543842124093   -0.496956493293
