9

 C   -1.004864637580   -1.711292875907    1.874782684551
 H   -1.983791637580   -1.219504875907    1.874782684551
 H   -0.897718637580   -2.351101875907    2.763054684551
 H   -0.897718637580   -2.351101875907    0.986510684551
 C    0.079762362420   -0.665708875907    1.874782684551
 O   -0.081341637580    0.543842124093    1.874782684551
 O    1.322048362420   -1.242716875907    1.874782684551
 H    1.956584362420   -0.504153875907    1.874782684551
RB   -0.081341637580    0.543842124093   -1.325217315449
