9

 C   -1.004864637580   -1.711292875907    2.050543561228
 H   -1.983791637580   -1.219504875907    2.050543561228
 H   -0.897718637580   -2.351101875907    2.938815561228
 H   -0.897718637580   -2.351101875907    1.162271561228
 C    0.079762362420   -0.665708875907    2.050543561228
 O   -0.081341637580    0.543842124093    2.050543561228
 O    1.322048362420   -1.242716875907    2.050543561228
 H    1.956584362420   -0.504153875907    2.050543561228
RB   -0.081341637580    0.543842124093   -1.449456438772
