9

 C   -1.004864637580   -1.711292875907    4.686956711377
 H   -1.983791637580   -1.219504875907    4.686956711377
 H   -0.897718637580   -2.351101875907    5.575228711377
 H   -0.897718637580   -2.351101875907    3.798684711377
 C    0.079762362420   -0.665708875907    4.686956711377
 O   -0.081341637580    0.543842124093    4.686956711377
 O    1.322048362420   -1.242716875907    4.686956711377
 H    1.956584362420   -0.504153875907    4.686956711377
RB   -0.081341637580    0.543842124093   -3.313043288623
