9

 C   -1.004864637580   -1.711292875907    5.038478464731
 H   -1.983791637580   -1.219504875907    5.038478464731
 H   -0.897718637580   -2.351101875907    5.926750464731
 H   -0.897718637580   -2.351101875907    4.150206464731
 C    0.079762362420   -0.665708875907    5.038478464731
 O   -0.081341637580    0.543842124093    5.038478464731
 O    1.322048362420   -1.242716875907    5.038478464731
 H    1.956584362420   -0.504153875907    5.038478464731
RB   -0.081341637580    0.543842124093   -3.561521535269
