14

 N    1.257136898647    1.111204157661    0.167826364985
 C    0.171689955744    1.933963127489    0.170968236206
 H    0.363210795626    3.009020099988    0.168463637664
 C    1.175273177965   -0.308066304065    0.168844033869
 O    2.219016425283   -0.961308194126    0.166363192557
 N   -0.098564910716   -0.850205935658    0.179457267999
 C   -1.156251023529   -0.048853904783    0.176964223171
 N   -2.388244139985   -0.652652933863    0.131558399962
 H   -2.397178608306   -1.652346820374    0.301129008527
 H   -3.206821884188   -0.126224614463    0.406458524759
 C   -1.087669025095    1.392522934412    0.173480789505
 H   -1.976192740780    2.023840525656    0.163998835478
 H    2.201077021574    1.485852370103    0.164520468757
NA   -0.106793159545   -0.850448341421   -0.820508850008
