14

 N    1.257701432749    1.111220788942    0.236433305105
 C    0.172254489846    1.933979758770    0.239575176326
 H    0.363775329728    3.009036731269    0.237070577784
 C    1.175837712067   -0.308049672784    0.237450973989
 O    2.219580959385   -0.961291562845    0.234970132677
 N   -0.098000376614   -0.850189304377    0.248064208119
 C   -1.155686489427   -0.048837273502    0.245571163291
 N   -2.387679605883   -0.652636302582    0.200165340082
 H   -2.396614074204   -1.652330189093    0.369735948647
 H   -3.206257350086   -0.126207983182    0.475065464879
 C   -1.087104490993    1.392539565693    0.242087729625
 H   -1.975628206678    2.023857156937    0.232605775598
 H    2.201641555676    1.485869001384    0.233127408877
NA   -0.109519924974   -0.850528672445   -1.151888357090
