14

 N    1.257983699800    1.111229104583    0.270736775164
 C    0.172536756897    1.933988074411    0.273878646385
 H    0.364057596779    3.009045046910    0.271374047843
 C    1.176119979118   -0.308041357143    0.271754444048
 O    2.219863226436   -0.961283247204    0.269273602736
 N   -0.097718109563   -0.850180988736    0.282367678178
 C   -1.155404222376   -0.048828957861    0.279874633350
 N   -2.387397338832   -0.652627986941    0.234468810141
 H   -2.396331807153   -1.652321873452    0.404039418706
 H   -3.205975083035   -0.126199667541    0.509368934938
 C   -1.086822223942    1.392547881334    0.276391199684
 H   -1.975345939627    2.023865472578    0.266909245657
 H    2.201923822727    1.485877317025    0.267430878936
NA   -0.110883307689   -0.850568837957   -1.317578110632
