14

 N    1.269838915947    1.111578361488    1.711482517681
 C    0.184391973044    1.934337331316    1.714624388902
 H    0.375912812926    3.009394303815    1.712119790360
 C    1.187975195265   -0.307692100238    1.712500186565
 O    2.231718442583   -0.960933990299    1.710019345253
 N   -0.085862893416   -0.849831731831    1.723113420695
 C   -1.143549006229   -0.048479700956    1.720620375867
 N   -2.375542122685   -0.652278730036    1.675214552658
 H   -2.384476591006   -1.651972616547    1.844785161223
 H   -3.194119866888   -0.125850410636    1.950114677455
 C   -1.074967007795    1.392897138239    1.717136942201
 H   -1.963490723480    2.024214729483    1.707654988174
 H    2.213779038874    1.486226573930    1.708176621453
NA   -0.168145381704   -0.852255789464   -8.276547759368
