14

 N    1.259395035056    1.111270682786    0.442254125464
 C    0.173948092153    1.934029652614    0.445395996685
 H    0.365468932035    3.009086625113    0.442891398143
 C    1.177531314374   -0.307999778940    0.443271794348
 O    2.221274561692   -0.961241669001    0.440790953036
 N   -0.096306774307   -0.850139410533    0.453885028478
 C   -1.153992887120   -0.048787379658    0.451391983650
 N   -2.385986003576   -0.652586408738    0.405986160441
 H   -2.394920471897   -1.652280295249    0.575556769006
 H   -3.204563747779   -0.126158089338    0.680886285238
 C   -1.085410888686    1.392589459537    0.447908549984
 H   -1.973934604371    2.023907050781    0.438426595957
 H    2.203335157983    1.485918895228    0.438948229236
NA   -0.117700221262   -0.850769665518   -2.146026878338
