14

 N    1.259677302107    1.111278998426    0.476557595524
 C    0.174230359204    1.934037968254    0.479699466745
 H    0.365751199086    3.009094940753    0.477194868203
 C    1.177813581425   -0.307991463300    0.477575264408
 O    2.221556828743   -0.961233353361    0.475094423096
 N   -0.096024507256   -0.850131094893    0.488188498538
 C   -1.153710620069   -0.048779064018    0.485695453710
 N   -2.385703736525   -0.652578093098    0.440289630501
 H   -2.394638204846   -1.652271979609    0.609860239066
 H   -3.204281480728   -0.126149773698    0.715189755298
 C   -1.085128621635    1.392597775177    0.482212020044
 H   -1.973652337320    2.023915366421    0.472730066017
 H    2.203617425034    1.485927210868    0.473251699296
NA   -0.119063603977   -0.850809831030   -2.311716631880
