14

 N    1.260241836209    1.111295629707    0.545164535644
 C    0.174794893306    1.934054599535    0.548306406865
 H    0.366315733188    3.009111572034    0.545801808323
 C    1.178378115527   -0.307974832019    0.546182204528
 O    2.222121362845   -0.961216722080    0.543701363216
 N   -0.095459973154   -0.850114463612    0.556795438658
 C   -1.153146085967   -0.048762432737    0.554302393830
 N   -2.385139202423   -0.652561461817    0.508896570621
 H   -2.394073670744   -1.652255348328    0.678467179186
 H   -3.203716946626   -0.126133142417    0.783796695418
 C   -1.084564087533    1.392614406458    0.550818960164
 H   -1.973087803218    2.023931997702    0.541337006137
 H    2.204181959136    1.485943842149    0.541858639416
NA   -0.121790369406   -0.850890162054   -2.643096138962
