14

 N    1.260382969735    1.111299787528    0.562316270674
 C    0.174936026832    1.934058757356    0.565458141895
 H    0.366456866714    3.009115729855    0.562953543353
 C    1.178519249053   -0.307970674198    0.563333939558
 O    2.222262496371   -0.961212564259    0.560853098246
 N   -0.095318839628   -0.850110305791    0.573947173688
 C   -1.153004952441   -0.048758274916    0.571454128860
 N   -2.384998068897   -0.652557303996    0.526048305651
 H   -2.393932537218   -1.652251190507    0.695618914216
 H   -3.203575813100   -0.126128984596    0.800948430448
 C   -1.084422954007    1.392618564279    0.567970695194
 H   -1.972946669692    2.023936155523    0.558488741167
 H    2.204323092662    1.485947999970    0.559010374446
NA   -0.122472060763   -0.850910244810   -2.725941015733
