14

 N    1.260524103260    1.111303945348    0.579468005704
 C    0.175077160357    1.934062915176    0.582609876925
 H    0.366598000239    3.009119887675    0.580105278383
 C    1.178660382578   -0.307966516378    0.580485674588
 O    2.222403629896   -0.961208406439    0.578004833276
 N   -0.095177706103   -0.850106147971    0.591098908718
 C   -1.152863818916   -0.048754117096    0.588605863890
 N   -2.384856935372   -0.652553146176    0.543200040681
 H   -2.393791403693   -1.652247032687    0.712770649246
 H   -3.203434679575   -0.126124826776    0.818100165478
 C   -1.084281820482    1.392622722099    0.585122430224
 H   -1.972805536167    2.023940313343    0.575640476197
 H    2.204464226187    1.485952157790    0.576162109476
NA   -0.123153752121   -0.850930327566   -2.808785892504
