14

 N    1.261794304990    1.111341365731    0.733833620973
 C    0.176347362087    1.934100335559    0.736975492194
 H    0.367868201969    3.009157308058    0.734470893652
 C    1.179930584308   -0.307929095995    0.734851289857
 O    2.223673831626   -0.961170986056    0.732370448545
 N   -0.093907504373   -0.850068727588    0.745464523987
 C   -1.151593617186   -0.048716696713    0.742971479159
 N   -2.383586733642   -0.652515725793    0.697565655950
 H   -2.392521201963   -1.652209612304    0.867136264515
 H   -3.202164477845   -0.126087406393    0.972465780747
 C   -1.083011618752    1.392660142482    0.739488045493
 H   -1.971535334437    2.023977733726    0.730006091466
 H    2.205734427917    1.485989578173    0.730527724745
NA   -0.129288974336   -0.851111072370   -3.554389783440
