14

 N    1.261935438516    1.111345523551    0.750985356003
 C    0.176488495613    1.934104493379    0.754127227224
 H    0.368009335495    3.009161465878    0.751622628682
 C    1.180071717834   -0.307924938175    0.752003024887
 O    2.223814965152   -0.961166828236    0.749522183575
 N   -0.093766370847   -0.850064569768    0.762616259017
 C   -1.151452483660   -0.048712538893    0.760123214189
 N   -2.383445600116   -0.652511567973    0.714717390980
 H   -2.392380068437   -1.652205454484    0.884287999545
 H   -3.202023344319   -0.126083248573    0.989617515777
 C   -1.082870485226    1.392664300302    0.756639780523
 H   -1.971394200911    2.023981891546    0.747157826496
 H    2.205875561443    1.485993735993    0.747679459775
NA   -0.129970665694   -0.851131155126   -3.637234660211
