14

 N    1.262076572042    1.111349681371    0.768137091033
 C    0.176629629139    1.934108651199    0.771278962254
 H    0.368150469021    3.009165623698    0.768774363712
 C    1.180212851360   -0.307920780355    0.769154759917
 O    2.223956098678   -0.961162670416    0.766673918605
 N   -0.093625237321   -0.850060411948    0.779767994047
 C   -1.151311350134   -0.048708381073    0.777274949219
 N   -2.383304466590   -0.652507410153    0.731869126010
 H   -2.392238934911   -1.652201296664    0.901439734575
 H   -3.201882210793   -0.126079090753    1.006769250807
 C   -1.082729351700    1.392668458122    0.773791515553
 H   -1.971253067385    2.023986049366    0.764309561526
 H    2.206016694969    1.485997893813    0.764831194805
NA   -0.130652357051   -0.851151237882   -3.720079536981
