14

 N    1.262358839093    1.111357997012    0.802440561093
 C    0.176911896190    1.934116966840    0.805582432314
 H    0.368432736072    3.009173939339    0.803077833772
 C    1.180495118411   -0.307912464714    0.803458229977
 O    2.224238365729   -0.961154354775    0.800977388665
 N   -0.093342970270   -0.850052096307    0.814071464107
 C   -1.151029083083   -0.048700065432    0.811578419279
 N   -2.383022199539   -0.652499094512    0.766172596070
 H   -2.391956667860   -1.652192981023    0.935743204635
 H   -3.201599943742   -0.126070775112    1.041072720867
 C   -1.082447084649    1.392676773763    0.808094985613
 H   -1.970970800334    2.023994365007    0.798613031586
 H    2.206298962020    1.486006209454    0.799134664865
NA   -0.132015739766   -0.851191403394   -3.885769290523
