14

 N    1.262641106144    1.111366312653    0.836744031153
 C    0.177194163241    1.934125282481    0.839885902374
 H    0.368715003123    3.009182254980    0.837381303832
 C    1.180777385462   -0.307904149073    0.837761700037
 O    2.224520632780   -0.961146039134    0.835280858725
 N   -0.093060703219   -0.850043780666    0.848374934167
 C   -1.150746816032   -0.048691749791    0.845881889339
 N   -2.382739932488   -0.652490778871    0.800476066130
 H   -2.391674400809   -1.652184665382    0.970046674695
 H   -3.201317676691   -0.126062459471    1.075376190927
 C   -1.082164817598    1.392685089404    0.842398455673
 H   -1.970688533283    2.024002680648    0.832916501646
 H    2.206581229071    1.486014525095    0.833438134925
NA   -0.133379122480   -0.851231568906   -4.051459044064
