14

 N    1.262782239669    1.111370470473    0.853895766183
 C    0.177335296766    1.934129440301    0.857037637404
 H    0.368856136648    3.009186412800    0.854533038862
 C    1.180918518987   -0.307899991253    0.854913435067
 O    2.224661766305   -0.961141881314    0.852432593755
 N   -0.092919569694   -0.850039622846    0.865526669197
 C   -1.150605682507   -0.048687591971    0.863033624369
 N   -2.382598798963   -0.652486621051    0.817627801160
 H   -2.391533267284   -1.652180507562    0.987198409725
 H   -3.201176543166   -0.126058301651    1.092527925957
 C   -1.082023684073    1.392689247224    0.859550190703
 H   -1.970547399758    2.024006838468    0.850068236676
 H    2.206722362596    1.486018682915    0.850589869955
NA   -0.134060813838   -0.851251651662   -4.134303920835
