14

 N    1.263346773772    1.111387101754    0.922502706303
 C    0.177899830869    1.934146071582    0.925644577524
 H    0.369420670751    3.009203044081    0.923139978982
 C    1.181483053090   -0.307883359972    0.923520375187
 O    2.225226300408   -0.961125250033    0.921039533875
 N   -0.092355035591   -0.850022991565    0.934133609317
 C   -1.150041148404   -0.048670960690    0.931640564489
 N   -2.382034264860   -0.652469989770    0.886234741280
 H   -2.390968733181   -1.652163876281    1.055805349845
 H   -3.200612009063   -0.126041670370    1.161134866077
 C   -1.081459149970    1.392705878505    0.928157130823
 H   -1.969982865655    2.024023469749    0.918675176796
 H    2.207286896699    1.486035314196    0.919196810075
NA   -0.136787579267   -0.851331982687   -4.465683427917
