14

 N    1.263770174348    1.111399575215    0.973957911393
 C    0.178323231445    1.934158545043    0.977099782614
 H    0.369844071327    3.009215517542    0.974595184072
 C    1.181906453666   -0.307870886511    0.974975580277
 O    2.225649700984   -0.961112776572    0.972494738965
 N   -0.091931635015   -0.850010518104    0.985588814407
 C   -1.149617747828   -0.048658487229    0.983095769579
 N   -2.381610864284   -0.652457516309    0.937689946370
 H   -2.390545332605   -1.652151402820    1.107260554935
 H   -3.200188608487   -0.126029196909    1.212590071167
 C   -1.081035749394    1.392718351966    0.979612335913
 H   -1.969559465079    2.024035943210    0.970130381886
 H    2.207710297275    1.486047787657    0.970652015165
NA   -0.138832653339   -0.851392230955   -4.714218058229
