14

 N    1.263911307874    1.111403733035    0.991109646423
 C    0.178464364971    1.934162702863    0.994251517644
 H    0.369985204853    3.009219675362    0.991746919102
 C    1.182047587192   -0.307866728691    0.992127315307
 O    2.225790834510   -0.961108618752    0.989646473995
 N   -0.091790501489   -0.850006360284    1.002740549437
 C   -1.149476614302   -0.048654329409    1.000247504609
 N   -2.381469730758   -0.652453358489    0.954841681400
 H   -2.390404199079   -1.652147245000    1.124412289965
 H   -3.200047474961   -0.126025039089    1.229741806197
 C   -1.080894615868    1.392722509786    0.996764070943
 H   -1.969418331553    2.024040101030    0.987282116916
 H    2.207851430801    1.486051945477    0.987803750195
NA   -0.139514344696   -0.851412313711   -4.797062935000
