14

 N    1.264052441399    1.111407890855    1.008261381453
 C    0.178605498496    1.934166860683    1.011403252674
 H    0.370126338378    3.009223833182    1.008898654132
 C    1.182188720717   -0.307862570871    1.009279050337
 O    2.225931968035   -0.961104460932    1.006798209025
 N   -0.091649367964   -0.850002202464    1.019892284467
 C   -1.149335480777   -0.048650171589    1.017399239639
 N   -2.381328597233   -0.652449200669    0.971993416430
 H   -2.390263065554   -1.652143087180    1.141564024995
 H   -3.199906341436   -0.126020881269    1.246893541227
 C   -1.080753482343    1.392726667606    1.013915805973
 H   -1.969277198028    2.024044258850    1.004433851946
 H    2.207992564326    1.486056103297    1.004955485225
NA   -0.140196036054   -0.851432396467   -4.879907811771
