14

 N    1.264193574925    1.111412048676    1.025413116483
 C    0.178746632022    1.934171018504    1.028554987704
 H    0.370267471904    3.009227991003    1.026050389162
 C    1.182329854243   -0.307858413050    1.026430785367
 O    2.226073101561   -0.961100303111    1.023949944055
 N   -0.091508234438   -0.849998044643    1.037044019497
 C   -1.149194347251   -0.048646013768    1.034550974669
 N   -2.381187463707   -0.652445042848    0.989145151460
 H   -2.390121932028   -1.652138929359    1.158715760025
 H   -3.199765207910   -0.126016723448    1.264045276257
 C   -1.080612348817    1.392730825427    1.031067541003
 H   -1.969136064502    2.024048416671    1.021585586976
 H    2.208133697852    1.486060261118    1.022107220255
NA   -0.140877727411   -0.851452479223   -4.962752688541
