14

 N    1.264334708450    1.111416206496    1.042564851513
 C    0.178887765547    1.934175176324    1.045706722734
 H    0.370408605429    3.009232148823    1.043202124192
 C    1.182470987768   -0.307854255230    1.043582520397
 O    2.226214235086   -0.961096145291    1.041101679085
 N   -0.091367100913   -0.849993886823    1.054195754527
 C   -1.149053213726   -0.048641855948    1.051702709699
 N   -2.381046330182   -0.652440885028    1.006296886490
 H   -2.389980798503   -1.652134771539    1.175867495055
 H   -3.199624074385   -0.126012565628    1.281197011287
 C   -1.080471215292    1.392734983247    1.048219276033
 H   -1.968994930977    2.024052574491    1.038737322006
 H    2.208274831377    1.486064418938    1.039258955285
NA   -0.141559418768   -0.851472561979   -5.045597565312
