14

 N    1.264616975502    1.111424522137    1.076868321573
 C    0.179170032599    1.934183491965    1.080010192794
 H    0.370690872481    3.009240464464    1.077505594252
 C    1.182753254820   -0.307845939589    1.077885990457
 O    2.226496502138   -0.961087829650    1.075405149145
 N   -0.091084833861   -0.849985571182    1.088499224587
 C   -1.148770946674   -0.048633540307    1.086006179759
 N   -2.380764063130   -0.652432569387    1.040600356550
 H   -2.389698531451   -1.652126455898    1.210170965115
 H   -3.199341807333   -0.126004249987    1.315500481347
 C   -1.080188948240    1.392743298888    1.082522746093
 H   -1.968712663925    2.024060890132    1.073040792066
 H    2.208557098429    1.486072734579    1.073562425345
NA   -0.142922801483   -0.851512727491   -5.211287318853
