14

 N    1.265040376078    1.111436995598    1.128323526663
 C    0.179593433175    1.934195965426    1.131465397884
 H    0.371114273057    3.009252937925    1.128960799342
 C    1.183176655396   -0.307833466128    1.129341195547
 O    2.226919902714   -0.961075356189    1.126860354235
 N   -0.090661433285   -0.849973097721    1.139954429677
 C   -1.148347546098   -0.048621066846    1.137461384849
 N   -2.380340662554   -0.652420095926    1.092055561640
 H   -2.389275130875   -1.652113982437    1.261626170205
 H   -3.198918406757   -0.125991776526    1.366955686437
 C   -1.079765547664    1.392755772349    1.133977951183
 H   -1.968289263349    2.024073363593    1.124495997156
 H    2.208980499005    1.486085208040    1.125017630435
NA   -0.144967875555   -0.851572975759   -5.459821949165
