14

 N    1.265181509604    1.111441153418    1.145475261692
 C    0.179734566701    1.934200123246    1.148617132913
 H    0.371255406583    3.009257095745    1.146112534371
 C    1.183317788922   -0.307829308308    1.146492930576
 O    2.227061036240   -0.961071198369    1.144012089264
 N   -0.090520299759   -0.849968939901    1.157106164706
 C   -1.148206412572   -0.048616909026    1.154613119878
 N   -2.380199529028   -0.652415938106    1.109207296669
 H   -2.389133997349   -1.652109824617    1.278777905234
 H   -3.198777273231   -0.125987618706    1.384107421466
 C   -1.079624414138    1.392759930169    1.151129686212
 H   -1.968148129823    2.024077521413    1.141647732185
 H    2.209121632531    1.486089365860    1.142169365464
NA   -0.145649566912   -0.851593058515   -5.542666825936
