14

 N    1.265463776655    1.111449469058    1.179778731752
 C    0.180016833752    1.934208438886    1.182920602973
 H    0.371537673634    3.009265411385    1.180416004431
 C    1.183600055973   -0.307820992668    1.180796400636
 O    2.227343303291   -0.961062882729    1.178315559324
 N   -0.090238032708   -0.849960624261    1.191409634766
 C   -1.147924145521   -0.048608593386    1.188916589938
 N   -2.379917261977   -0.652407622466    1.143510766729
 H   -2.388851730298   -1.652101508977    1.313081375294
 H   -3.198495006180   -0.125979303066    1.418410891526
 C   -1.079342147087    1.392768245809    1.185433156272
 H   -1.967865862772    2.024085837053    1.175951202245
 H    2.209403899582    1.486097681500    1.176472835524
NA   -0.147012949627   -0.851633224027   -5.708356579477
