14

 N    1.265746043706    1.111457784699    1.214082201812
 C    0.180299100803    1.934216754527    1.217224073033
 H    0.371819940685    3.009273727026    1.214719474491
 C    1.183882323024   -0.307812677027    1.215099870696
 O    2.227625570342   -0.961054567088    1.212619029384
 N   -0.089955765657   -0.849952308620    1.225713104826
 C   -1.147641878470   -0.048600277745    1.223220059998
 N   -2.379634994926   -0.652399306825    1.177814236789
 H   -2.388569463247   -1.652093193336    1.347384845354
 H   -3.198212739129   -0.125970987425    1.452714361586
 C   -1.079059880036    1.392776561450    1.219736626332
 H   -1.967583595721    2.024094152694    1.210254672305
 H    2.209686166633    1.486105997141    1.210776305584
NA   -0.148376332342   -0.851673389539   -5.874046333019
