14

 N    1.265887177232    1.111461942519    1.231233936842
 C    0.180440234329    1.934220912347    1.234375808063
 H    0.371961074211    3.009277884846    1.231871209521
 C    1.184023456550   -0.307808519207    1.232251605726
 O    2.227766703868   -0.961050409268    1.229770764414
 N   -0.089814632131   -0.849948150800    1.242864839856
 C   -1.147500744944   -0.048596119925    1.240371795028
 N   -2.379493861400   -0.652395149005    1.194965971819
 H   -2.388428329721   -1.652089035516    1.364536580384
 H   -3.198071605603   -0.125966829605    1.469866096616
 C   -1.078918746510    1.392780719270    1.236888361362
 H   -1.967442462195    2.024098310514    1.227406407335
 H    2.209827300159    1.486110154961    1.227928040614
NA   -0.149058023699   -0.851693472295   -5.956891209789
