14

 N    1.266169444283    1.111470258160    1.265537406902
 C    0.180722501380    1.934229227988    1.268679278123
 H    0.372243341262    3.009286200487    1.266174679581
 C    1.184305723601   -0.307800203566    1.266555075786
 O    2.228048970919   -0.961042093627    1.264074234474
 N   -0.089532365080   -0.849939835159    1.277168309916
 C   -1.147218477893   -0.048587804284    1.274675265088
 N   -2.379211594349   -0.652386833364    1.229269441879
 H   -2.388146062670   -1.652080719875    1.398840050444
 H   -3.197789338552   -0.125958513964    1.504169566676
 C   -1.078636479459    1.392789034911    1.271191831422
 H   -1.967160195144    2.024106626155    1.261709877395
 H    2.210109567210    1.486118470602    1.262231510674
NA   -0.150421406414   -0.851733637807   -6.122580963331
