14

 N    1.266451711334    1.111478573801    1.299840876962
 C    0.181004768431    1.934237543629    1.302982748183
 H    0.372525608313    3.009294516128    1.300478149641
 C    1.184587990652   -0.307791887925    1.300858545846
 O    2.228331237970   -0.961033777986    1.298377704534
 N   -0.089250098029   -0.849931519518    1.311471779976
 C   -1.146936210842   -0.048579488643    1.308978735148
 N   -2.378929327298   -0.652378517723    1.263572911939
 H   -2.387863795619   -1.652072404234    1.433143520504
 H   -3.197507071501   -0.125950198323    1.538473036736
 C   -1.078354212408    1.392797350552    1.305495301482
 H   -1.966877928093    2.024114941796    1.296013347455
 H    2.210391834261    1.486126786243    1.296534980734
NA   -0.151784789128   -0.851773803319   -6.288270716872
