14

 N    1.266875111910    1.111491047261    1.351296082052
 C    0.181428169007    1.934250017089    1.354437953273
 H    0.372949008889    3.009306989588    1.351933354731
 C    1.185011391228   -0.307779414465    1.352313750936
 O    2.228754638546   -0.961021304526    1.349832909624
 N   -0.088826697453   -0.849919046058    1.362926985066
 C   -1.146512810266   -0.048567015183    1.360433940238
 N   -2.378505926722   -0.652366044263    1.315028117029
 H   -2.387440395043   -1.652059930774    1.484598725594
 H   -3.197083670925   -0.125937724863    1.589928241826
 C   -1.077930811832    1.392809824012    1.356950506572
 H   -1.966454527517    2.024127415256    1.347468552545
 H    2.210815234837    1.486139259703    1.347990185824
NA   -0.153829863200   -0.851834051587   -6.536805347184
