14

 N    1.268004180115    1.111524309824    1.488509962292
 C    0.182557237212    1.934283279652    1.491651833513
 H    0.374078077094    3.009340252151    1.489147234971
 C    1.186140459433   -0.307746151902    1.489527631176
 O    2.229883706751   -0.960988041963    1.487046789864
 N   -0.087697629248   -0.849885783495    1.500140865306
 C   -1.145383742061   -0.048533752620    1.497647820478
 N   -2.377376858517   -0.652332781700    1.452241997269
 H   -2.386311326838   -1.652026668211    1.621812605834
 H   -3.195954602720   -0.125904462300    1.727142122066
 C   -1.076801743627    1.392843086575    1.494164386812
 H   -1.965325459312    2.024160677819    1.484682432785
 H    2.211944303042    1.486172522266    1.485204066064
NA   -0.159283394059   -0.851994713635   -7.199564361349
