14

 N    1.268286447166    1.111532625464    1.522813432352
 C    0.182839504263    1.934291595292    1.525955303573
 H    0.374360344145    3.009348567791    1.523450705031
 C    1.186422726484   -0.307737836262    1.523831101236
 O    2.230165973802   -0.960979726323    1.521350259924
 N   -0.087415362197   -0.849877467855    1.534444335366
 C   -1.145101475010   -0.048525436980    1.531951290538
 N   -2.377094591466   -0.652324466060    1.486545467329
 H   -2.386029059787   -1.652018352571    1.656116075894
 H   -3.195672335669   -0.125896146660    1.761445592126
 C   -1.076519476576    1.392851402215    1.528467856872
 H   -1.965043192261    2.024168993459    1.518985902845
 H    2.212226570093    1.486180837906    1.519507536124
NA   -0.160646776773   -0.852034879148   -7.365254114891
