14

 N    1.268568714217    1.111540941105    1.557116902412
 C    0.183121771314    1.934299910933    1.560258773633
 H    0.374642611196    3.009356883432    1.557754175091
 C    1.186704993535   -0.307729520621    1.558134571296
 O    2.230448240853   -0.960971410682    1.555653729984
 N   -0.087133095146   -0.849869152214    1.568747805426
 C   -1.144819207959   -0.048517121339    1.566254760598
 N   -2.376812324415   -0.652316150419    1.520848937389
 H   -2.385746792736   -1.652010036930    1.690419545954
 H   -3.195390068618   -0.125887831019    1.795749062186
 C   -1.076237209525    1.392859717856    1.562771326932
 H   -1.964760925210    2.024177309100    1.553289372905
 H    2.212508837144    1.486189153547    1.553811006184
NA   -0.162010159488   -0.852075044660   -7.530943868432
