14

 N    1.269556648896    1.111570045847    1.677179047621
 C    0.184109705993    1.934329015675    1.680320918842
 H    0.375630545875    3.009385988174    1.677816320300
 C    1.187692928214   -0.307700415879    1.678196716505
 O    2.231436175532   -0.960942305940    1.675715875193
 N   -0.086145160467   -0.849840047472    1.688809950635
 C   -1.143831273280   -0.048488016597    1.686316905807
 N   -2.375824389736   -0.652287045677    1.640911082598
 H   -2.384758858057   -1.651980932188    1.810481691163
 H   -3.194402133939   -0.125858726277    1.915811207395
 C   -1.075249274846    1.392888822598    1.682833472141
 H   -1.963772990531    2.024206413842    1.673351518114
 H    2.213496771823    1.486218258289    1.673873151393
NA   -0.166781998989   -0.852215623952   -8.110858005827
