14

 N    1.269697782422    1.111574203667    1.694330782651
 C    0.184250839519    1.934333173495    1.697472653872
 H    0.375771679401    3.009390145994    1.694968055330
 C    1.187834061740   -0.307696258059    1.695348451535
 O    2.231577309058   -0.960938148120    1.692867610223
 N   -0.086004026941   -0.849835889652    1.705961685665
 C   -1.143690139754   -0.048483858777    1.703468640837
 N   -2.375683256210   -0.652282887857    1.658062817628
 H   -2.384617724531   -1.651976774368    1.827633426193
 H   -3.194261000413   -0.125854568457    1.932962942425
 C   -1.075108141320    1.392892980418    1.699985207171
 H   -1.963631857005    2.024210571662    1.690503253144
 H    2.213637905349    1.486222416109    1.691024886423
NA   -0.167463690347   -0.852235706708   -8.193702882597
