26

 C    2.370472476235    1.706434323849    0.703006318914
 H    2.763752476235    2.568284323849    1.248196318914
 C    2.370472476235    1.706434323849   -0.714533681086
 H    2.763752476235    2.568284323849   -1.259723681086
 C    1.888112476235    0.583744323849    1.413896318914
 H    1.909602476235    0.575724323849    2.506426318914
 C    1.888112476235    0.583744323849   -1.425423681086
 H    1.909602476235    0.575724323849   -2.517953681086
 C    1.426692476235   -0.551465676151    0.702746318914
 H    1.165662476235   -1.456685676151    1.267526318914
 C    1.426692476235   -0.551465676151   -0.714273681086
 H    1.165662476235   -1.456685676151   -1.279053681086
LI    0.189952476235    1.446174323849   -0.005763681086
LI   -0.816527523765   -1.184265676151   -0.005763681086
 C   -2.314139888210   -1.729982109532   -0.701972226283
 H   -2.707410671672   -2.591838665900   -1.247164015951
 C   -2.314144974618   -1.729980859341    0.715570608741
 H   -2.707419671330   -2.591836457552    1.260761090278
 C   -1.831779274975   -0.607288247223   -1.412857636463
 H   -1.853267638547   -0.599276474265   -2.505386965417
 C   -1.831789745240   -0.607285433183    1.426457503646
 H   -1.853286166065   -0.599271493759    2.518986658208
 C   -1.370371178745    0.527922981239   -0.701711529253
 H   -1.109337113823    1.433145870450   -1.266495738220
 C   -1.370376382882    0.527924133167    0.715312937357
 H   -1.109346465804    1.433147953477    1.280097571031
