26

 C    2.455114689545    1.671055038816    0.704564857633
 H    2.848394689545    2.532905038816    1.249754857633
 C    2.455114689545    1.671055038816   -0.712975142367
 H    2.848394689545    2.532905038816   -1.258165142367
 C    1.972754689545    0.548365038816    1.415454857633
 H    1.994244689545    0.540345038816    2.507984857633
 C    1.972754689545    0.548365038816   -1.423865142367
 H    1.994244689545    0.540345038816   -2.516395142367
 C    1.511334689545   -0.586844961184    0.704304857633
 H    1.250304689545   -1.492064961184    1.269084857633
 C    1.511334689545   -0.586844961184   -0.712715142367
 H    1.250304689545   -1.492064961184   -1.277495142367
LI    0.274594689545    1.410795038816   -0.004205142367
LI   -0.731885310455   -1.219644961184   -0.004205142367
 C   -2.413999866161   -1.688242007458   -0.703810973594
 H   -2.807270649622   -2.550098563826   -1.249002763262
 C   -2.414004952569   -1.688240757267    0.713731861430
 H   -2.807279649280   -2.550096355479    1.258922342967
 C   -1.931639252925   -0.565548145150   -1.414696383774
 H   -1.953127616497   -0.557536372192   -2.507225712728
 C   -1.931649723190   -0.565545331110    1.424618756336
 H   -1.953146144015   -0.557531391686    2.517147910897
 C   -1.470231156695    0.569663083313   -0.703550276564
 H   -1.209197091774    1.474885972524   -1.268334485531
 C   -1.470236360833    0.569664235241    0.713474190046
 H   -1.209206443754    1.474888055550    1.278258823720
