26

 C    2.539756902856    1.635675753784    0.706123396352
 H    2.933036902856    2.497525753784    1.251313396352
 C    2.539756902856    1.635675753784   -0.711416603648
 H    2.933036902856    2.497525753784   -1.256606603648
 C    2.057396902856    0.512985753784    1.417013396352
 H    2.078886902856    0.504965753784    2.509543396352
 C    2.057396902856    0.512985753784   -1.422306603648
 H    2.078886902856    0.504965753784   -2.514836603648
 C    1.595976902856   -0.622224246216    0.705863396352
 H    1.334946902856   -1.527444246216    1.270643396352
 C    1.595976902856   -0.622224246216   -0.711156603648
 H    1.334946902856   -1.527444246216   -1.275936603648
LI    0.359236902856    1.375415753784   -0.002646603648
LI   -0.647243097144   -1.255024246216   -0.002646603648
 C   -2.513859844111   -1.646501905385   -0.705649720905
 H   -2.907130627572   -2.508358461753   -1.250841510573
 C   -2.513864930519   -1.646500655194    0.711893114119
 H   -2.907139627230   -2.508356253406    1.257083595656
 C   -2.031499230876   -0.523808043076   -1.416535131085
 H   -2.052987594447   -0.515796270118   -2.509064460039
 C   -2.031509701140   -0.523805229036    1.422780009025
 H   -2.053006121966   -0.515791289612    2.515309163586
 C   -1.570091134646    0.611403185386   -0.705389023875
 H   -1.309057069724    1.516626074597   -1.270173232842
 C   -1.570096338783    0.611404337314    0.711635442736
 H   -1.309066421705    1.516628157624    1.276420076409
