26

 C    2.582078009511    1.617986111267    0.706902665712
 H    2.975358009511    2.479836111267    1.252092665712
 C    2.582078009511    1.617986111267   -0.710637334288
 H    2.975358009511    2.479836111267   -1.255827334288
 C    2.099718009511    0.495296111267    1.417792665712
 H    2.121208009511    0.487276111267    2.510322665712
 C    2.099718009511    0.495296111267   -1.421527334288
 H    2.121208009511    0.487276111267   -2.514057334288
 C    1.638298009511   -0.639913888733    0.706642665712
 H    1.377268009511   -1.545133888733    1.271422665712
 C    1.638298009511   -0.639913888733   -0.710377334288
 H    1.377268009511   -1.545133888733   -1.275157334288
LI    0.401558009511    1.357726111267   -0.001867334288
LI   -0.604921990489   -1.272713888733   -0.001867334288
 C   -2.563789833087   -1.625631854348   -0.706569094560
 H   -2.957060616548   -2.487488410716   -1.251760884228
 C   -2.563794919495   -1.625630604157    0.710973740464
 H   -2.957069616206   -2.487486202369    1.256164222001
 C   -2.081429219851   -0.502937992039   -1.417454504740
 H   -2.102917583423   -0.494926219081   -2.509983833694
 C   -2.081439690116   -0.502935178000    1.421860635369
 H   -2.102936110941   -0.494921238576    2.514389789931
 C   -1.620021123621    0.632273236423   -0.706308397530
 H   -1.358987058699    1.537496125634   -1.271092606497
 C   -1.620026327758    0.632274388351    0.710716069080
 H   -1.358996410680    1.537498208661    1.275500702754
