26

 C    2.751362436131    1.547227541201    0.710019743150
 H    3.144642436131    2.409077541201    1.255209743150
 C    2.751362436131    1.547227541201   -0.707520256850
 H    3.144642436131    2.409077541201   -1.252710256850
 C    2.269002436131    0.424537541201    1.420909743150
 H    2.290492436131    0.416517541201    2.513439743150
 C    2.269002436131    0.424537541201   -1.418410256850
 H    2.290492436131    0.416517541201   -2.510940256850
 C    1.807582436131   -0.710672458799    0.709759743150
 H    1.546552436131   -1.615892458799    1.274539743150
 C    1.807582436131   -0.710672458799   -0.707260256850
 H    1.546552436131   -1.615892458799   -1.272040256850
LI    0.570842436131    1.286967541201    0.001249743150
LI   -0.435637563869   -1.343472458799    0.001249743150
 C   -2.763509788987   -1.542151650201   -0.710246589182
 H   -3.156780572449   -2.404008206569   -1.255438378850
 C   -2.763514875395   -1.542150400011    0.707296245842
 H   -3.156789572107   -2.404005998222    1.252486727379
 C   -2.281149175752   -0.419457787893   -1.421131999362
 H   -2.302637539324   -0.411446014935   -2.513661328316
 C   -2.281159646017   -0.419454973853    1.418183140748
 H   -2.302656066842   -0.411441034429    2.510712295309
 C   -1.819741079522    0.715753440570   -0.709985892152
 H   -1.558707014600    1.620976329781   -1.274770101119
 C   -1.819746283659    0.715754592498    0.707038574458
 H   -1.558716366581    1.620978412807    1.271823208132
