26

 C    2.836004649441    1.511848256168    0.711578281868
 H    3.229284649441    2.373698256168    1.256768281868
 C    2.836004649441    1.511848256168   -0.705961718132
 H    3.229284649441    2.373698256168   -1.251151718132
 C    2.353644649441    0.389158256168    1.422468281868
 H    2.375134649441    0.381138256168    2.514998281868
 C    2.353644649441    0.389158256168   -1.416851718132
 H    2.375134649441    0.381138256168   -2.509381718132
 C    1.892224649441   -0.746051743832    0.711318281868
 H    1.631194649441   -1.651271743832    1.276098281868
 C    1.892224649441   -0.746051743832   -0.705701718132
 H    1.631194649441   -1.651271743832   -1.270481718132
LI    0.655484649441    1.251588256168    0.002808281868
LI   -0.350995350559   -1.378851743832    0.002808281868
 C   -2.863369766938   -1.500411548128   -0.712085336493
 H   -3.256640550399   -2.362268104496   -1.257277126161
 C   -2.863374853346   -1.500410297937    0.705457498531
 H   -3.256649550057   -2.362265896149    1.250647980068
 C   -2.381009153702   -0.377717685819   -1.422970746672
 H   -2.402497517274   -0.369705912861   -2.515500075627
 C   -2.381019623967   -0.377714871779    1.416344393437
 H   -2.402516044792   -0.369700932355    2.508873547998
 C   -1.919601057472    0.757493542643   -0.711824639463
 H   -1.658566992551    1.662716431854   -1.276608848430
 C   -1.919606261610    0.757494694571    0.705199827148
 H   -1.658576344531    1.662718514881    1.269984460822
