26

 C    2.878325756096    1.494158613652    0.712357551228
 H    3.271605756096    2.356008613652    1.257547551228
 C    2.878325756096    1.494158613652   -0.705182448772
 H    3.271605756096    2.356008613652   -1.250372448772
 C    2.395965756096    0.371468613652    1.423247551228
 H    2.417455756096    0.363448613652    2.515777551228
 C    2.395965756096    0.371468613652   -1.416072448772
 H    2.417455756096    0.363448613652   -2.508602448772
 C    1.934545756096   -0.763741386348    0.712097551228
 H    1.673515756096   -1.668961386348    1.276877551228
 C    1.934545756096   -0.763741386348   -0.704922448772
 H    1.673515756096   -1.668961386348   -1.269702448772
LI    0.697805756096    1.233898613652    0.003587551228
LI   -0.308674243904   -1.396541386348    0.003587551228
 C   -2.913299755913   -1.479541497091   -0.713004710148
 H   -3.306570539374   -2.341398053459   -1.258196499816
 C   -2.913304842321   -1.479540246900    0.704538124876
 H   -3.306579539032   -2.341395845112    1.249728606413
 C   -2.430939142677   -0.356847634782   -1.423890120328
 H   -2.452427506249   -0.348835861824   -2.516419449282
 C   -2.430949612942   -0.356844820743    1.415425019781
 H   -2.452446033768   -0.348830881319    2.507954174343
 C   -1.969531046447    0.778363593680   -0.712744013118
 H   -1.708496981526    1.683586482891   -1.277528222085
 C   -1.969536250585    0.778364745608    0.704280453492
 H   -1.708506333507    1.683588565918    1.269065087166
