26

 C    3.089931289372    1.405710401070    0.716253898025
 H    3.483211289372    2.267560401070    1.261443898025
 C    3.089931289372    1.405710401070   -0.701286101975
 H    3.483211289372    2.267560401070   -1.246476101975
 C    2.607571289372    0.283020401070    1.427143898025
 H    2.629061289372    0.275000401070    2.519673898025
 C    2.607571289372    0.283020401070   -1.412176101975
 H    2.629061289372    0.275000401070   -2.504706101975
 C    2.146151289372   -0.852189598930    0.715993898025
 H    1.885121289372   -1.757409598930    1.280773898025
 C    2.146151289372   -0.852189598930   -0.701026101975
 H    1.885121289372   -1.757409598930   -1.265806101975
LI    0.909411289372    1.145450401070    0.007483898025
LI   -0.097068710628   -1.484989598930    0.007483898025
 C   -3.162949700789   -1.375191241908   -0.717601578425
 H   -3.556220484250   -2.237047798276   -1.262793368093
 C   -3.162954787197   -1.375189991717    0.699941256599
 H   -3.556229483908   -2.237045589928    1.245131738136
 C   -2.680589087554   -0.252497379599   -1.428486988605
 H   -2.702077451125   -0.244485606641   -2.521016317559
 C   -2.680599557818   -0.252494565559    1.410828151504
 H   -2.702095978644   -0.244480626135    2.503357306066
 C   -2.219180991323    0.882713848863   -0.717340881395
 H   -1.958146926402    1.787936738075   -1.282125090362
 C   -2.219186195461    0.882715000792    0.699683585215
 H   -1.958156278383    1.787938821101    1.264468218889
