26

 C    3.174573502682    1.370331116037    0.717812436744
 H    3.567853502682    2.232181116037    1.263002436744
 C    3.174573502682    1.370331116037   -0.699727563256
 H    3.567853502682    2.232181116037   -1.244917563256
 C    2.692213502682    0.247641116037    1.428702436744
 H    2.713703502682    0.239621116037    2.521232436744
 C    2.692213502682    0.247641116037   -1.410617563256
 H    2.713703502682    0.239621116037   -2.503147563256
 C    2.230793502682   -0.887568883963    0.717552436744
 H    1.969763502682   -1.792788883963    1.282332436744
 C    2.230793502682   -0.887568883963   -0.699467563256
 H    1.969763502682   -1.792788883963   -1.264247563256
LI    0.994053502682    1.110071116037    0.009042436744
LI   -0.012426497318   -1.520368883963    0.009042436744
 C   -3.262809678740   -1.333451139834   -0.719440325736
 H   -3.656080462201   -2.195307696202   -1.264632115404
 C   -3.262814765148   -1.333449889643    0.698102509288
 H   -3.656089461859   -2.195305487855    1.243292990825
 C   -2.780449065504   -0.210757277526   -1.430325735916
 H   -2.801937429076   -0.202745504568   -2.522855064870
 C   -2.780459535769   -0.210754463486    1.408989404193
 H   -2.801955956594   -0.202740524062    2.501518558755
 C   -2.319040969274    0.924453950937   -0.719179628706
 H   -2.058006904352    1.829676840148   -1.283963837673
 C   -2.319046173412    0.924455102865    0.697844837904
 H   -2.058016256333    1.829678923175    1.262629471578
