26

 C    3.259215715992    1.334951831004    0.719370975463
 H    3.652495715992    2.196801831004    1.264560975463
 C    3.259215715992    1.334951831004   -0.698169024537
 H    3.652495715992    2.196801831004   -1.243359024537
 C    2.776855715992    0.212261831004    1.430260975463
 H    2.798345715992    0.204241831004    2.522790975463
 C    2.776855715992    0.212261831004   -1.409059024537
 H    2.798345715992    0.204241831004   -2.501589024537
 C    2.315435715992   -0.922948168996    0.719110975463
 H    2.054405715992   -1.828168168996    1.283890975463
 C    2.315435715992   -0.922948168996   -0.697909024537
 H    2.054405715992   -1.828168168996   -1.262689024537
LI    1.078695715992    1.074691831004    0.010600975463
LI    0.072215715992   -1.555748168996    0.010600975463
 C   -3.362669656690   -1.291711037761   -0.721279073047
 H   -3.755940440151   -2.153567594129   -1.266470862715
 C   -3.362674743098   -1.291709787570    0.696263761977
 H   -3.755949439809   -2.153565385781    1.241454243514
 C   -2.880309043454   -0.169017175452   -1.432164483227
 H   -2.901797407026   -0.161005402494   -2.524693812181
 C   -2.880319513719   -0.169014361412    1.407150656883
 H   -2.901815934545   -0.161000421988    2.499679811444
 C   -2.418900947224    0.966194053010   -0.721018376017
 H   -2.157866882303    1.871416942221   -1.285802584984
 C   -2.418906151362    0.966195204938    0.696006090593
 H   -2.157876234284    1.871419025248    1.260790724267
