26

 C    3.301536822647    1.317262188487    0.720150244823
 H    3.694816822647    2.179112188487    1.265340244823
 C    3.301536822647    1.317262188487   -0.697389755177
 H    3.694816822647    2.179112188487   -1.242579755177
 C    2.819176822647    0.194572188487    1.431040244823
 H    2.840666822647    0.186552188487    2.523570244823
 C    2.819176822647    0.194572188487   -1.408279755177
 H    2.840666822647    0.186552188487   -2.500809755177
 C    2.357756822647   -0.940637811513    0.719890244823
 H    2.096726822647   -1.845857811513    1.284670244823
 C    2.357756822647   -0.940637811513   -0.697129755177
 H    2.096726822647   -1.845857811513   -1.261909755177
LI    1.121016822647    1.057002188487    0.011380244823
LI    0.114536822647   -1.573437811513    0.011380244823
 C   -3.412599645665   -1.270840986724   -0.722198446702
 H   -3.805870429126   -2.132697543092   -1.267390236370
 C   -3.412604732073   -1.270839736533    0.695344388322
 H   -3.805879428784   -2.132695334745    1.240534869859
 C   -2.930239032430   -0.148147124415   -1.433083856882
 H   -2.951727396001   -0.140135351457   -2.525613185836
 C   -2.930249502694   -0.148144310375    1.406231283227
 H   -2.951745923520   -0.140130370951    2.498760437789
 C   -2.468830936200    0.987064104047   -0.721937749672
 H   -2.207796871278    1.892286993258   -1.286721958639
 C   -2.468836140337    0.987065255975    0.695086716938
 H   -2.207806223259    1.892289076285    1.259871350612
