26

 C    3.428500142613    1.264193260938    0.722488052901
 H    3.821780142613    2.126043260938    1.267678052901
 C    3.428500142613    1.264193260938   -0.695051947099
 H    3.821780142613    2.126043260938   -1.240241947099
 C    2.946140142613    0.141503260938    1.433378052901
 H    2.967630142613    0.133483260938    2.525908052901
 C    2.946140142613    0.141503260938   -1.405941947099
 H    2.967630142613    0.133483260938   -2.498471947099
 C    2.484720142613   -0.993706739062    0.722228052901
 H    2.223690142613   -1.898926739062    1.287008052901
 C    2.484720142613   -0.993706739062   -0.694791947099
 H    2.223690142613   -1.898926739062   -1.259571947099
LI    1.247980142613    1.003933260938    0.013718052901
LI    0.241500142613   -1.626506739062    0.013718052901
 C   -3.562389612591   -1.208230833614   -0.724956567668
 H   -3.955660396052   -2.070087389982   -1.270148357336
 C   -3.562394698999   -1.208229583423    0.692586267355
 H   -3.955669395710   -2.070085181635    1.237776748892
 C   -3.080028999355   -0.085536971305   -1.435841977848
 H   -3.101517362927   -0.077525198347   -2.528371306802
 C   -3.080039469620   -0.085534157265    1.403473162261
 H   -3.101535890445   -0.077520217841    2.496002316822
 C   -2.618620903125    1.049674257157   -0.724695870638
 H   -2.357586838204    1.954897146368   -1.289480079606
 C   -2.618626107263    1.049675409085    0.692328595972
 H   -2.357596190184    1.954899229395    1.257113229646
