26

 C    3.513142355923    1.228813975905    0.724046591620
 H    3.906422355923    2.090663975905    1.269236591620
 C    3.513142355923    1.228813975905   -0.693493408380
 H    3.906422355923    2.090663975905   -1.238683408380
 C    3.030782355923    0.106123975905    1.434936591620
 H    3.052272355923    0.098103975905    2.527466591620
 C    3.030782355923    0.106123975905   -1.404383408380
 H    3.052272355923    0.098103975905   -2.496913408380
 C    2.569362355923   -1.029086024095    0.723786591620
 H    2.308332355923   -1.934306024095    1.288566591620
 C    2.569362355923   -1.029086024095   -0.693233408380
 H    2.308332355923   -1.934306024095   -1.258013408380
LI    1.332622355923    0.968553975905    0.015276591620
LI    0.326142355923   -1.661886024095    0.015276591620
 C   -3.662249590541   -1.166490731541   -0.726795314979
 H   -4.055520374003   -2.028347287909   -1.271987104647
 C   -3.662254676949   -1.166489481350    0.690747520045
 H   -4.055529373661   -2.028345079561    1.235938001581
 C   -3.179888977306   -0.043796869232   -1.437680725159
 H   -3.201377340878   -0.035785096274   -2.530210054113
 C   -3.179899447570   -0.043794055192    1.401634414950
 H   -3.201395868396   -0.035780115768    2.494163569512
 C   -2.718480881076    1.091414359230   -0.726534617949
 H   -2.457446816154    1.996637248442   -1.291318826917
 C   -2.718486085213    1.091415511159    0.690489848661
 H   -2.457456168135    1.996639331468    1.255274482335
