26

 C    3.555463462578    1.211124333389    0.724825860979
 H    3.948743462578    2.072974333389    1.270015860979
 C    3.555463462578    1.211124333389   -0.692714139021
 H    3.948743462578    2.072974333389   -1.237904139021
 C    3.073103462578    0.088434333389    1.435715860979
 H    3.094593462578    0.080414333389    2.528245860979
 C    3.073103462578    0.088434333389   -1.403604139021
 H    3.094593462578    0.080414333389   -2.496134139021
 C    2.611683462578   -1.046775666611    0.724565860979
 H    2.350653462578   -1.951995666611    1.289345860979
 C    2.611683462578   -1.046775666611   -0.692454139021
 H    2.350653462578   -1.951995666611   -1.257234139021
LI    1.374943462578    0.950864333389    0.016055860979
LI    0.368463462578   -1.679575666611    0.016055860979
 C   -3.712179579517   -1.145620680504   -0.727714688635
 H   -4.105450362978   -2.007477236872   -1.272906478303
 C   -3.712184665925   -1.145619430313    0.689828146389
 H   -4.105459362636   -2.007475028525    1.235018627926
 C   -3.229818966281   -0.022926818195   -1.438600098815
 H   -3.251307329853   -0.014915045237   -2.531129427769
 C   -3.229829436546   -0.022924004155    1.400715041295
 H   -3.251325857371   -0.014910064731    2.493244195856
 C   -2.768410870051    1.112284410267   -0.727453991605
 H   -2.507376805129    2.017507299478   -1.292238200572
 C   -2.768416074189    1.112285562195    0.689570475006
 H   -2.507386157110    2.017509382505    1.254355108679
