26

 C    3.724747889198    1.140365763323    0.727942938417
 H    4.118027889198    2.002215763323    1.273132938417
 C    3.724747889198    1.140365763323   -0.689597061583
 H    4.118027889198    2.002215763323   -1.234787061583
 C    3.242387889198    0.017675763323    1.438832938417
 H    3.263877889198    0.009655763323    2.531362938417
 C    3.242387889198    0.017675763323   -1.400487061583
 H    3.263877889198    0.009655763323   -2.493017061583
 C    2.780967889198   -1.117534236677    0.727682938417
 H    2.519937889198   -2.022754236677    1.292462938417
 C    2.780967889198   -1.117534236677   -0.689337061583
 H    2.519937889198   -2.022754236677   -1.254117061583
LI    1.544227889198    0.880105763323    0.019172938417
LI    0.537747889198   -1.750334236677    0.019172938417
 C   -3.911899535418   -1.062140476357   -0.731392183256
 H   -4.305170318879   -1.923997032725   -1.276583972924
 C   -3.911904621826   -1.062139226166    0.686150651768
 H   -4.305179318537   -1.923994824378    1.231341133304
 C   -3.429538922182    0.060553385952   -1.442277593436
 H   -3.451027285754    0.068565158910   -2.534806922390
 C   -3.429549392447    0.060556199992    1.397037546673
 H   -3.451045813272    0.068570139416    2.489566701234
 C   -2.968130825952    1.195764614414   -0.731131486226
 H   -2.707096761030    2.100987503625   -1.295915695194
 C   -2.968136030089    1.195765766342    0.685892980384
 H   -2.707106113011    2.100989586652    1.250677614058
