26

 C    3.851711209164    1.087296835774    0.730280746496
 H    4.244991209164    1.949146835774    1.275470746496
 C    3.851711209164    1.087296835774   -0.687259253504
 H    4.244991209164    1.949146835774   -1.232449253504
 C    3.369351209164   -0.035393164226    1.441170746496
 H    3.390841209164   -0.043413164226    2.533700746496
 C    3.369351209164   -0.035393164226   -1.398149253504
 H    3.390841209164   -0.043413164226   -2.490679253504
 C    2.907931209164   -1.170603164226    0.730020746496
 H    2.646901209164   -2.075823164226    1.294800746496
 C    2.907931209164   -1.170603164226   -0.686999253504
 H    2.646901209164   -2.075823164226   -1.251779253504
LI    1.671191209164    0.827036835774    0.021510746496
LI    0.664711209164   -1.803403164226    0.021510746496
 C   -4.061689502343   -0.999530323247   -0.734150304223
 H   -4.454960285804   -1.861386879615   -1.279342093891
 C   -4.061694588751   -0.999529073056    0.683392530801
 H   -4.454969285462   -1.861384671268    1.228583012338
 C   -3.579328889108    0.123163539062   -1.445035714402
 H   -3.600817252679    0.131175312020   -2.537565043357
 C   -3.579339359372    0.123166353102    1.394279425707
 H   -3.600835780198    0.131180292526    2.486808580268
 C   -3.117920792877    1.258374767524   -0.733889607193
 H   -2.856886727956    2.163597656735   -1.298673816160
 C   -3.117925997015    1.258375919452    0.683134859418
 H   -2.856896079937    2.163599739762    1.247919493092
