26

 C    4.232601169060    0.928090053126    0.737294170731
 H    4.625881169060    1.789940053126    1.282484170731
 C    4.232601169060    0.928090053126   -0.680245829269
 H    4.625881169060    1.789940053126   -1.225435829269
 C    3.750241169060   -0.194599946874    1.448184170731
 H    3.771731169060   -0.202619946874    2.540714170731
 C    3.750241169060   -0.194599946874   -1.391135829269
 H    3.771731169060   -0.202619946874   -2.483665829269
 C    3.288821169060   -1.329809946874    0.737034170731
 H    3.027791169060   -2.235029946874    1.301814170731
 C    3.288821169060   -1.329809946874   -0.679985829269
 H    3.027791169060   -2.235029946874   -1.244765829269
LI    2.052081169060    0.667830053126    0.028524170731
LI    1.045601169060   -1.962609946874    0.028524170731
 C   -4.511059403120   -0.811699863916   -0.742424667121
 H   -4.904330186581   -1.673556420285   -1.287616456789
 C   -4.511064489528   -0.811698613726    0.675118167903
 H   -4.904339186239   -1.673554211937    1.220308649439
 C   -4.028698789885    0.310993998392   -1.453310077301
 H   -4.050187153456    0.319005771350   -2.545839406255
 C   -4.028709260149    0.310996812432    1.386005062808
 H   -4.050205680975    0.319010751856    2.478534217369
 C   -3.567290693654    1.446205226854   -0.742163970091
 H   -3.306256628733    2.351428116066   -1.306948179059
 C   -3.567295897792    1.446206378783    0.674860496519
 H   -3.306265980714    2.351430199092    1.239645130193
