26

 C    4.444206702335    0.839641840543    0.741190517528
 H    4.837486702335    1.701491840543    1.286380517528
 C    4.444206702335    0.839641840543   -0.676349482472
 H    4.837486702335    1.701491840543   -1.221539482472
 C    3.961846702335   -0.283048159457    1.452080517528
 H    3.983336702335   -0.291068159457    2.544610517528
 C    3.961846702335   -0.283048159457   -1.387239482472
 H    3.983336702335   -0.291068159457   -2.479769482472
 C    3.500426702335   -1.418258159457    0.740930517528
 H    3.239396702335   -2.323478159457    1.305710517528
 C    3.500426702335   -1.418258159457   -0.676089482472
 H    3.239396702335   -2.323478159457   -1.240869482472
LI    2.263686702335    0.579381840543    0.032420517528
LI    1.257206702335   -2.051058159457    0.032420517528
 C   -4.760709347996   -0.707349608733   -0.747021535398
 H   -5.153980131457   -1.569206165101   -1.292213325066
 C   -4.760714434404   -0.707348358542    0.670521299626
 H   -5.153989131115   -1.569203956754    1.215711781162
 C   -4.278348734761    0.415344253576   -1.457906945578
 H   -4.299837098332    0.423356026534   -2.550436274532
 C   -4.278359205025    0.415347067616    1.381408194531
 H   -4.299855625851    0.423361007040    2.473937349092
 C   -3.816940638531    1.550555482038   -0.746760838368
 H   -3.555906573609    2.455778371249   -1.311545047336
 C   -3.816945842668    1.550556633966    0.670263628242
 H   -3.555915925590    2.455780454276    1.235048261916
