26

 C    4.740454448921    0.715814342928    0.746645403044
 H    5.133734448921    1.577664342928    1.291835403044
 C    4.740454448921    0.715814342928   -0.670894596956
 H    5.133734448921    1.577664342928   -1.216084596956
 C    4.258094448921   -0.406875657072    1.457535403044
 H    4.279584448921   -0.414895657072    2.550065403044
 C    4.258094448921   -0.406875657072   -1.381784596956
 H    4.279584448921   -0.414895657072   -2.474314596956
 C    3.796674448921   -1.542085657072    0.746385403044
 H    3.535644448921   -2.447305657072    1.311165403044
 C    3.796674448921   -1.542085657072   -0.670634596956
 H    3.535644448921   -2.447305657072   -1.235414596956
LI    2.559934448921    0.455554342928    0.037875403044
LI    1.553454448921   -2.174885657072    0.037875403044
 C   -5.110219270823   -0.561259251476   -0.753457150986
 H   -5.503490054284   -1.423115807844   -1.298648940654
 C   -5.110224357231   -0.561258001285    0.664085684038
 H   -5.503499053942   -1.423113599497    1.209276165574
 C   -4.627858657587    0.561434610833   -1.464342561166
 H   -4.649347021159    0.569446383791   -2.556871890120
 C   -4.627869127852    0.561437424873    1.374972578943
 H   -4.649365548677    0.569451364297    2.467501733504
 C   -4.166450561357    1.696645839295   -0.753196453956
 H   -3.905416496435    2.601868728506   -1.317980662924
 C   -4.166455765495    1.696646991223    0.663828012654
 H   -3.905425848416    2.601870811533    1.228612646328
