26

 C    4.994381088851    0.609676487830    0.751321019201
 H    5.387661088851    1.471526487830    1.296511019201
 C    4.994381088851    0.609676487830   -0.666218980799
 H    5.387661088851    1.471526487830   -1.211408980799
 C    4.512021088851   -0.513013512170    1.462211019201
 H    4.533511088851   -0.521033512170    2.554741019201
 C    4.512021088851   -0.513013512170   -1.377108980799
 H    4.533511088851   -0.521033512170   -2.469638980799
 C    4.050601088851   -1.648223512170    0.751061019201
 H    3.789571088851   -2.553443512170    1.315841019201
 C    4.050601088851   -1.648223512170   -0.665958980799
 H    3.789571088851   -2.553443512170   -1.230738980799
LI    2.813861088851    0.349416487830    0.042551019201
LI    1.807381088851   -2.281023512170    0.042551019201
 C   -5.409799204674   -0.436038945256   -0.758973392919
 H   -5.803069988135   -1.297895501624   -1.304165182587
 C   -5.409804291082   -0.436037695065    0.658569442105
 H   -5.803078987793   -1.297893293276    1.203759923642
 C   -4.927438591439    0.686654917053   -1.469858803099
 H   -4.948926955010    0.694666690011   -2.562388132053
 C   -4.927449061703    0.686657731093    1.369456337011
 H   -4.948945482529    0.694671670517    2.461985491572
 C   -4.466030495208    1.821866145515   -0.758712695889
 H   -4.204996430287    2.727089034726   -1.323496904856
 C   -4.466035699346    1.821867297443    0.658311770721
 H   -4.205005782268    2.727091117753    1.223096404395
