26

 C    5.036702195507    0.591986845313    0.752100288561
 H    5.429982195507    1.453836845313    1.297290288561
 C    5.036702195507    0.591986845313   -0.665439711439
 H    5.429982195507    1.453836845313   -1.210629711439
 C    4.554342195507   -0.530703154687    1.462990288561
 H    4.575832195507   -0.538723154687    2.555520288561
 C    4.554342195507   -0.530703154687   -1.376329711439
 H    4.575832195507   -0.538723154687   -2.468859711439
 C    4.092922195507   -1.665913154687    0.751840288561
 H    3.831892195507   -2.571133154687    1.316620288561
 C    4.092922195507   -1.665913154687   -0.665179711439
 H    3.831892195507   -2.571133154687   -1.229959711439
LI    2.856182195507    0.331726845313    0.043330288561
LI    1.849702195507   -2.298713154687    0.043330288561
 C   -5.459729193649   -0.415168894219   -0.759892766574
 H   -5.852999977110   -1.277025450587   -1.305084556242
 C   -5.459734280057   -0.415167644028    0.657650068450
 H   -5.853008976768   -1.277023242240    1.202840549987
 C   -4.977368580414    0.707524968090   -1.470778176754
 H   -4.998856943985    0.715536741048   -2.563307505708
 C   -4.977379050678    0.707527782130    1.368536963355
 H   -4.998875471504    0.715541721554    2.461066117917
 C   -4.515960484184    1.842736196552   -0.759632069544
 H   -4.254926419262    2.747959085763   -1.324416278512
 C   -4.515965688321    1.842737348480    0.657392397066
 H   -4.254935771243    2.747961168790    1.222177030740
