26

 C    5.205986622127    0.521228275247    0.755217365998
 H    5.599266622127    1.383078275247    1.300407365998
 C    5.205986622127    0.521228275247   -0.662322634002
 H    5.599266622127    1.383078275247   -1.207512634002
 C    4.723626622127   -0.601461724753    1.466107365998
 H    4.745116622127   -0.609481724753    2.558637365998
 C    4.723626622127   -0.601461724753   -1.373212634002
 H    4.745116622127   -0.609481724753   -2.465742634002
 C    4.262206622127   -1.736671724753    0.754957365998
 H    4.001176622127   -2.641891724753    1.319737365998
 C    4.262206622127   -1.736671724753   -0.662062634002
 H    4.001176622127   -2.641891724753   -1.226842634002
LI    3.025466622127    0.260968275247    0.046447365998
LI    2.018986622127   -2.369471724753    0.046447365998
 C   -5.659449149550   -0.331688690072   -0.763570261196
 H   -6.052719933011   -1.193545246440   -1.308762050864
 C   -5.659454235958   -0.331687439881    0.653972573828
 H   -6.052728932669   -1.193543038093    1.199163055365
 C   -5.177088536315    0.791005172236   -1.474455671376
 H   -5.198576899886    0.799016945194   -2.566985000330
 C   -5.177099006579    0.791007986276    1.364859468734
 H   -5.198595427405    0.799021925700    2.457388623295
 C   -4.715680440085    1.926216400699   -0.763309564166
 H   -4.454646375163    2.831439289910   -1.328093773133
 C   -4.715685644222    1.926217552627    0.653714902444
 H   -4.454655727144    2.831441372936    1.218499536118
