26

 C    5.459913262058    0.415090420149    0.759892982155
 H    5.853193262058    1.276940420149    1.305082982155
 C    5.459913262058    0.415090420149   -0.657647017845
 H    5.853193262058    1.276940420149   -1.202837017845
 C    4.977553262058   -0.707599579851    1.470782982155
 H    4.999043262058   -0.715619579851    2.563312982155
 C    4.977553262058   -0.707599579851   -1.368537017845
 H    4.999043262058   -0.715619579851   -2.461067017845
 C    4.516133262058   -1.842809579851    0.759632982155
 H    4.255103262058   -2.748029579851    1.324412982155
 C    4.516133262058   -1.842809579851   -0.657387017845
 H    4.255103262058   -2.748029579851   -1.222167017845
LI    3.279393262058    0.154830420149    0.051122982155
LI    2.272913262058   -2.475609579851    0.051122982155
 C   -5.959029083402   -0.206468383852   -0.769086503128
 H   -6.352299866863   -1.068324940220   -1.314278292796
 C   -5.959034169810   -0.206467133661    0.648456331896
 H   -6.352308866521   -1.068322731873    1.193646813432
 C   -5.476668470166    0.916225478457   -1.479971913308
 H   -5.498156833738    0.924237251415   -2.572501242262
 C   -5.476678940431    0.916228292497    1.359343226801
 H   -5.498175361256    0.924242231921    2.451872381362
 C   -5.015260373936    2.051436706919   -0.768825806098
 H   -4.754226309014    2.956659596130   -1.333610015066
 C   -5.015265578073    2.051437858847    0.648198660512
 H   -4.754235660995    2.956661679157    1.212983294186
