26

 C    5.502234368713    0.397400777632    0.760672251515
 H    5.895514368713    1.259250777632    1.305862251515
 C    5.502234368713    0.397400777632   -0.656867748485
 H    5.895514368713    1.259250777632   -1.202057748485
 C    5.019874368713   -0.725289222368    1.471562251515
 H    5.041364368713   -0.733309222368    2.564092251515
 C    5.019874368713   -0.725289222368   -1.367757748485
 H    5.041364368713   -0.733309222368   -2.460287748485
 C    4.558454368713   -1.860499222368    0.760412251515
 H    4.297424368713   -2.765719222368    1.325192251515
 C    4.558454368713   -1.860499222368   -0.656607748485
 H    4.297424368713   -2.765719222368   -1.221387748485
LI    3.321714368713    0.137140777632    0.051902251515
LI    2.315234368713   -2.493299222368    0.051902251515
 C   -6.008959072377   -0.185598332815   -0.770005876784
 H   -6.402229855838   -1.047454889183   -1.315197666452
 C   -6.008964158785   -0.185597082625    0.647536958240
 H   -6.402238855496   -1.047452680836    1.192727439777
 C   -5.526598459141    0.937095529493   -1.480891286964
 H   -5.548086822713    0.945107302451   -2.573420615918
 C   -5.526608929406    0.937098343533    1.358423853146
 H   -5.548105350231    0.945112282957    2.450953007707
 C   -5.065190362911    2.072306757956   -0.769745179754
 H   -4.804156297989    2.977529647167   -1.334529388721
 C   -5.065195567049    2.072307909884    0.647279286856
 H   -4.804165649970    2.977531730193    1.212063920530
