26

 C    5.629197688678    0.344331850083    0.763010059593
 H    6.022477688678    1.206181850083    1.308200059593
 C    5.629197688678    0.344331850083   -0.654529940407
 H    6.022477688678    1.206181850083   -1.199719940407
 C    5.146837688678   -0.778358149917    1.473900059593
 H    5.168327688678   -0.786378149917    2.566430059593
 C    5.146837688678   -0.778358149917   -1.365419940407
 H    5.168327688678   -0.786378149917   -2.457949940407
 C    4.685417688678   -1.913568149917    0.762750059593
 H    4.424387688678   -2.818788149917    1.327530059593
 C    4.685417688678   -1.913568149917   -0.654269940407
 H    4.424387688678   -2.818788149917   -1.219049940407
LI    3.448677688678    0.084071850083    0.054240059593
LI    2.442197688678   -2.546368149917    0.054240059593
 C   -6.158749039302   -0.122988179705   -0.772763997750
 H   -6.552019822764   -0.984844736073   -1.317955787418
 C   -6.158754125710   -0.122986929514    0.644778837274
 H   -6.552028822422   -0.984842527726    1.189969318811
 C   -5.676388426067    0.999705682604   -1.483649407930
 H   -5.697876789639    1.007717455562   -2.576178736884
 C   -5.676398896332    0.999708496643    1.355665732179
 H   -5.697895317157    1.007722436067    2.448194886741
 C   -5.214980329837    2.134916911066   -0.772503300720
 H   -4.953946264915    3.040139800277   -1.337287509687
 C   -5.214985533974    2.134918062994    0.644521165890
 H   -4.953955616896    3.040141883304    1.209305799564
