26

 C    5.671518795333    0.326642207566    0.763789328953
 H    6.064798795333    1.188492207566    1.308979328953
 C    5.671518795333    0.326642207566   -0.653750671047
 H    6.064798795333    1.188492207566   -1.198940671047
 C    5.189158795333   -0.796047792434    1.474679328953
 H    5.210648795333   -0.804067792434    2.567209328953
 C    5.189158795333   -0.796047792434   -1.364640671047
 H    5.210648795333   -0.804067792434   -2.457170671047
 C    4.727738795333   -1.931257792434    0.763529328953
 H    4.466708795333   -2.836477792434    1.328309328953
 C    4.727738795333   -1.931257792434   -0.653490671047
 H    4.466708795333   -2.836477792434   -1.218270671047
LI    3.490998795333    0.066382207566    0.055019328953
LI    2.484518795333   -2.564057792434    0.055019328953
 C   -6.208679028278   -0.102118128668   -0.773683371406
 H   -6.601949811739   -0.963974685036   -1.318875161073
 C   -6.208684114686   -0.102116878478    0.643859463618
 H   -6.601958811397   -0.963972476689    1.189049945155
 C   -5.726318415042    1.020575733640   -1.484568781585
 H   -5.747806778614    1.028587506598   -2.577098110540
 C   -5.726328885307    1.020578547680    1.354746358524
 H   -5.747825306132    1.028592487104    2.447275513085
 C   -5.264910318812    2.155786962103   -0.773422674376
 H   -5.003876253890    3.061009851314   -1.338206883343
 C   -5.264915522950    2.155788114031    0.643601792235
 H   -5.003885605871    3.061011934340    1.208386425909
