26

 C    5.756161008643    0.291262922533    0.765347867671
 H    6.149441008643    1.153112922533    1.310537867671
 C    5.756161008643    0.291262922533   -0.652192132329
 H    6.149441008643    1.153112922533   -1.197382132329
 C    5.273801008643   -0.831427077467    1.476237867671
 H    5.295291008643   -0.839447077467    2.568767867671
 C    5.273801008643   -0.831427077467   -1.363082132329
 H    5.295291008643   -0.839447077467   -2.455612132329
 C    4.812381008643   -1.966637077467    0.765087867671
 H    4.551351008643   -2.871857077467    1.329867867671
 C    4.812381008643   -1.966637077467   -0.651932132329
 H    4.551351008643   -2.871857077467   -1.216712132329
LI    3.575641008643    0.031002922533    0.056577867671
LI    2.569161008643   -2.599437077467    0.056577867671
 C   -6.308539006228   -0.060378026595   -0.775522118716
 H   -6.701809789689   -0.922234582963   -1.320713908384
 C   -6.308544092636   -0.060376776404    0.642020716308
 H   -6.701818789347   -0.922232374616    1.187211197844
 C   -5.826178392992    1.062315835714   -1.486407528896
 H   -5.847666756564    1.070327608672   -2.578936857850
 C   -5.826188863257    1.062318649754    1.352907611213
 H   -5.847685284083    1.070332589178    2.445436765774
 C   -5.364770296762    2.197527064176   -0.775261421686
 H   -5.103736231841    3.102749953387   -1.340045630654
 C   -5.364775500900    2.197528216104    0.641763044924
 H   -5.103745583822    3.102752036414    1.206547678598
