26

 C    5.798482115298    0.273573280017    0.766127137031
 H    6.191762115298    1.135423280017    1.311317137031
 C    5.798482115298    0.273573280017   -0.651412862969
 H    6.191762115298    1.135423280017   -1.196602862969
 C    5.316122115298   -0.849116719983    1.477017137031
 H    5.337612115298   -0.857136719983    2.569547137031
 C    5.316122115298   -0.849116719983   -1.362302862969
 H    5.337612115298   -0.857136719983   -2.454832862969
 C    4.854702115298   -1.984326719983    0.765867137031
 H    4.593672115298   -2.889546719983    1.330647137031
 C    4.854702115298   -1.984326719983   -0.651152862969
 H    4.593672115298   -2.889546719983   -1.215932862969
LI    3.617962115298    0.013313280017    0.057357137031
LI    2.611482115298   -2.617126719983    0.057357137031
 C   -6.358468995203   -0.039507975558   -0.776441492372
 H   -6.751739778664   -0.901364531926   -1.321633282040
 C   -6.358474081611   -0.039506725368    0.641101342652
 H   -6.751748778322   -0.901362323579    1.186291824189
 C   -5.876108381968    1.083185886750   -1.487326902552
 H   -5.897596745539    1.091197659708   -2.579856231506
 C   -5.876118852232    1.083188700790    1.351988237558
 H   -5.897615273058    1.091202640214    2.444517392119
 C   -5.414700285738    2.218397115213   -0.776180795342
 H   -5.153666220816    3.123620004424   -1.340965004309
 C   -5.414705489875    2.218398267141    0.640843671268
 H   -5.153675572797    3.123622087450    1.205628304942
