26

 C    5.840803221953    0.255883637501    0.766906406390
 H    6.234083221953    1.117733637501    1.312096406390
 C    5.840803221953    0.255883637501   -0.650633593610
 H    6.234083221953    1.117733637501   -1.195823593610
 C    5.358443221953   -0.866806362499    1.477796406390
 H    5.379933221953   -0.874826362499    2.570326406390
 C    5.358443221953   -0.866806362499   -1.361523593610
 H    5.379933221953   -0.874826362499   -2.454053593610
 C    4.897023221953   -2.002016362499    0.766646406390
 H    4.635993221953   -2.907236362499    1.331426406390
 C    4.897023221953   -2.002016362499   -0.650373593610
 H    4.635993221953   -2.907236362499   -1.215153593610
LI    3.660283221953   -0.004376362499    0.058136406390
LI    2.653803221953   -2.634816362499    0.058136406390
 C   -6.408398984179   -0.018637924522   -0.777360866027
 H   -6.801669767640   -0.880494480890   -1.322552655695
 C   -6.408404070587   -0.018636674331    0.640181968997
 H   -6.801678767298   -0.880492272542    1.185372450534
 C   -5.926038370943    1.104055937787   -1.488246276207
 H   -5.947526734515    1.112067710745   -2.580775605161
 C   -5.926048841208    1.104058751827    1.351068863902
 H   -5.947545262033    1.112072691251    2.443598018464
 C   -5.464630274713    2.239267166249   -0.777100168997
 H   -5.203596209791    3.144490055461   -1.341884377964
 C   -5.464635478850    2.239268318178    0.639924297613
 H   -5.203605561772    3.144492138487    1.204708931287
