25

 N   -5.300339891356    3.186706496326    0.252536601187
 C   -4.102789891356    3.853766496326    0.186496601187
 H   -4.181369891356    4.942036496326    0.246286601187
 C   -5.414319891356    1.800556496326    0.199906601187
 O   -6.462329891356    1.190376496326    0.331556601187
 N   -4.183499891356    1.181296496326   -0.054563398813
 H   -4.231769891356    0.170546496326   -0.165333398813
 C   -2.926069891356    1.757946496326   -0.103093398813
 O   -1.932779891356    1.048026496326   -0.401513398813
 C   -2.900149891356    3.206296496326    0.053446601187
 H   -1.964089891356    3.747786496326   -0.039123398813
 H   -6.154379891356    3.683206496326    0.489466601187
RB    0.561080108644   -0.311713503674    0.139126601187
 O    1.509821947334   -0.829000852500    0.344802857139
 C    2.503117115257   -1.538921324545    0.046391136102
 N    3.737331592951   -0.939001014839   -0.134771456766
 H    3.762378905247    0.078490878773   -0.117304886363
 C    4.967644614112   -1.548988811554   -0.412998045572
 O    5.986737042769   -0.928206497966   -0.666109028917
 N    4.891845827911   -2.936561464062   -0.335154674472
 H    5.743733125958   -3.431784349228   -0.582287872430
 C    3.721155375005   -3.623484135125   -0.132483957408
 H    3.828144886906   -4.710508546632   -0.100673884616
 C    2.510503247256   -2.995700563143    0.020719811233
 H    1.598600797307   -3.548924393807    0.221622617241
