25

 N   -5.331715029463    3.204146320430    0.244491815644
 C   -4.134165029463    3.871206320430    0.178451815644
 H   -4.212745029463    4.959476320430    0.238241815644
 C   -5.445695029463    1.817996320430    0.191861815644
 O   -6.493705029463    1.207816320430    0.323511815644
 N   -4.214875029463    1.198736320430   -0.062608184356
 H   -4.263145029463    0.187986320430   -0.173378184356
 C   -2.957445029463    1.775386320430   -0.111138184356
 O   -1.964155029463    1.065466320430   -0.409558184356
 C   -2.931525029463    3.223736320430    0.045401815644
 H   -1.995465029463    3.765226320430   -0.047168184356
 H   -6.185755029463    3.700646320430    0.481421815644
RB    0.529704970537   -0.294273679570    0.131081815644
 O    1.564696067291   -0.858587151016    0.355455913046
 C    2.557991235214   -1.568507623061    0.057044192009
 N    3.794145245950   -0.969820152595   -0.114729538369
 H    3.821034881177    0.047490885329   -0.090700344978
 C    5.024552648837   -1.580392385982   -0.391251594697
 O    6.045952788414   -0.959975419254   -0.635811957736
 N    4.945781063537   -2.968282123943   -0.322549156518
 H    5.797843109268   -3.463563176581   -0.568962307999
 C    3.772888476217   -3.654228011974   -0.129532241706
 H    3.877679344787   -4.741635162163   -0.104130053176
 C    2.562742135974   -3.025106646506    0.022172488306
 H    1.648894972059   -3.577841641068    0.215439167508
