25

 N   -5.363080868167    3.221582102172    0.236487600919
 C   -4.165530868167    3.888642102172    0.170447600919
 H   -4.244110868167    4.976912102172    0.230237600919
 C   -5.477060868167    1.835432102172    0.183857600919
 O   -6.525070868167    1.225252102172    0.315507600919
 N   -4.246240868167    1.216172102172   -0.070612399081
 H   -4.294510868167    0.205422102172   -0.181382399081
 C   -2.988810868167    1.792822102172   -0.119142399081
 O   -1.995520868167    1.082902102172   -0.417562399081
 C   -2.962890868167    3.241172102172    0.037397600919
 H   -2.026830868167    3.782662102172   -0.055172399081
 H   -6.217120868167    3.718082102172    0.473417600919
RB    0.498339131833   -0.276837897828    0.123077600919
 O    1.619579486650   -0.888177491895    0.366149539772
 C    2.612874654573   -1.598097963940    0.067737818735
 N    3.850866108485   -1.000665963168   -0.094933028362
 H    3.879513074455    0.016426710435   -0.064534884615
 C    5.081356579652   -1.611815253680   -0.369805766141
 O    6.104956288656   -0.991808372856   -0.606069035307
 N    4.999741972262   -2.999951705817   -0.309979697330
 H    5.851970207774   -3.495293820467   -0.555694402120
 C    3.824758044948   -3.684888276390   -0.126325193038
 H    3.927444458093   -4.772623722613   -0.107146893180
 C    2.615110946103   -3.054461851370    0.023936582845
 H    1.699412388840   -3.606673234387    0.209795032189
