25

 N   -5.394438086295    3.239013608324    0.228522252309
 C   -4.196888086295    3.906073608324    0.162482252309
 H   -4.275468086295    4.994343608324    0.222272252309
 C   -5.508418086295    1.852863608324    0.175892252309
 O   -6.556428086295    1.242683608324    0.307542252309
 N   -4.277598086295    1.233603608324   -0.078577747691
 H   -4.325868086295    0.222853608324   -0.189347747691
 C   -3.020168086295    1.810253608324   -0.127107747691
 O   -2.026878086295    1.100333608324   -0.425527747691
 C   -2.994248086295    3.258603608324    0.029432252309
 H   -2.058188086295    3.800093608324   -0.063137747691
 H   -6.248478086295    3.735513608324    0.465452252309
RB    0.466981913705   -0.259406391676    0.115112252309
 O    1.674471526585   -0.917772108362    0.376882032612
 C    2.667766694507   -1.627692580407    0.078470311575
 N    3.907499700327   -1.031534754307   -0.075372337454
 H    3.937823816068   -0.014694305296   -0.038791580779
 C    5.138062798229   -1.643253488808   -0.348648624098
 O    6.163760112676   -1.023696851690   -0.576858662091
 N    5.053727844431   -3.031572121471   -0.297444110932
 H    5.906114212770   -3.526977843292   -0.542481132536
 C    3.876756793623   -3.715471262795   -0.122871999310
 H    3.977427848373   -4.803484867807   -0.109740295509
 C    2.667602202259   -3.083771623157    0.026000166877
 H    1.750140169698   -3.635428494495    0.204669519636
