25

 N   -5.425787311036    3.256440644094    0.220594145563
 C   -4.228237311036    3.923500644094    0.154554145563
 H   -4.306817311036    5.011770644094    0.214344145563
 C   -5.539767311036    1.870290644094    0.167964145563
 O   -6.587777311036    1.260110644094    0.299614145563
 N   -4.308947311036    1.251030644094   -0.086505854437
 H   -4.357217311036    0.240280644094   -0.197275854437
 C   -3.051517311036    1.827680644094   -0.135035854437
 O   -2.058227311036    1.117760644094   -0.433455854437
 C   -3.025597311036    3.276030644094    0.021504145563
 H   -2.089537311036    3.817520644094   -0.071065854437
 H   -6.279827311036    3.752940644094    0.457524145563
RB    0.435632688964   -0.241979355906    0.107184145563
 O    1.729371559906   -0.947371195213    0.387651767316
 C    2.722666727829   -1.657291667258    0.089240046279
 N    3.964051170456   -1.062423182984   -0.056038279776
 H    3.995976754773   -0.045865483659   -0.013454203984
 C    5.194677257321   -1.674703562765   -0.327768748738
 O    6.222375988030   -1.055633145933   -0.548160143315
 N    5.107737978768   -3.063145208416   -0.284940360165
 H    5.960274890669   -3.558616765169   -0.529319660424
 C    3.928877884301   -3.745982814701   -0.119181519632
 H    4.027617904191   -4.834228406170   -0.111925575854
 C    2.720208919053   -3.113040925237    0.028351796637
 H    1.801066282449   -3.664115912919    0.200042780755
