25

 N   -5.457129122074    3.273863048821    0.212701733356
 C   -4.259579122074    3.940923048821    0.146661733356
 H   -4.338159122074    5.029193048821    0.206451733356
 C   -5.571109122074    1.887713048821    0.160071733356
 O   -6.619119122074    1.277533048821    0.291721733356
 N   -4.340289122074    1.268453048821   -0.094398266644
 H   -4.388559122074    0.257703048821   -0.205168266644
 C   -3.082859122074    1.845103048821   -0.142928266644
 O   -2.089569122074    1.135183048821   -0.441348266644
 C   -3.056939122074    3.293453048821    0.013611733356
 H   -2.120879122074    3.834943048821   -0.078958266644
 H   -6.311169122074    3.770363048821    0.449631733356
RB    0.404290877926   -0.224556951179    0.099291733356
 O    1.784279006931   -0.976974913107    0.398457196560
 C    2.777574174854   -1.686895385152    0.100045475522
 N    4.020525323828   -1.093328223399   -0.036922059876
 H    4.053980905568   -0.077080749694    0.011492800842
 C    5.251205503085   -1.706162306562   -0.307155218087
 O    6.280814861238   -1.087610270328   -0.519953660222
 N    5.161771684406   -3.094672731619   -0.272466545801
 H    6.014451987406   -3.590212062775   -0.516207318454
 C    3.981114898889   -3.776428324538   -0.115262288746
 H    4.078003730058   -4.864863382578   -0.113717483283
 C    2.772924566527   -3.142274281527    0.030980498840
 H    1.852179480897   -3.692743225459    0.195895784834
