25

 N   -5.519792606706    3.308693470468    0.197018167103
 C   -4.322242606706    3.975753470468    0.130978167103
 H   -4.400822606706    5.064023470468    0.190768167103
 C   -5.633772606706    1.922543470468    0.144388167103
 O   -6.681782606706    1.312363470468    0.276038167103
 N   -4.402952606706    1.303283470468   -0.110081832897
 H   -4.451222606706    0.292533470468   -0.220851832897
 C   -3.145522606706    1.879933470468   -0.158611832897
 O   -2.152232606706    1.170013470468   -0.457031832897
 C   -3.119602606706    3.328283470468   -0.002071832897
 H   -2.183542606706    3.869773470468   -0.094641832897
 H   -6.373832606706    3.805193470468    0.433948167103
RB    0.341627393294   -0.189726529532    0.083608167103
 O    1.894114038425   -1.036196736700    0.420169313208
 C    2.887409206348   -1.746117208745    0.121757592170
 N    4.133259327170   -1.155177450741    0.000690177655
 H    4.169576001510   -0.139621942925    0.060274674052
 C    5.364023683618   -1.769094724505   -0.266685881052
 O    6.397201815196   -1.151662301184   -0.464941725759
 N    5.269907107664   -3.157597795740   -0.247601759371
 H    6.122854341328   -3.653277471007   -0.490120146738
 C    4.085912961271   -3.837140748481   -0.106770126598
 H    4.179322406486   -4.925840379311   -0.116177409765
 C    2.878658620369   -3.200649284412    0.037027491391
 H    1.954925750778   -3.749845092892    0.188968835616
