25

 N   -8.083127588796    4.723625880247   -0.395275910465
 C   -6.885577588796    5.390685880247   -0.461315910465
 H   -6.964157588796    6.478955880247   -0.401525910465
 C   -8.197107588796    3.337475880247   -0.447905910465
 O   -9.245117588796    2.727295880247   -0.316255910465
 N   -6.966287588796    2.718215880247   -0.702375910465
 H   -7.014557588796    1.707465880247   -0.813145910465
 C   -5.708857588796    3.294865880247   -0.750905910465
 O   -4.715567588796    2.584945880247   -1.049325910465
 C   -5.682937588796    4.743215880247   -0.594365910465
 H   -4.746877588796    5.284705880247   -0.686935910465
 H   -8.937167588796    5.220125880247   -0.158345910465
RB   -2.221707588796    1.225205880247   -0.508685910465
 O    6.403218217485   -3.477406381802    1.361098234558
 C    7.396513385408   -4.187326853846    1.062686513521
 N    8.671734821131   -3.672928355343    1.221476042804
 H    8.743872730167   -2.691207676429    1.480788273855
 C    9.899732642167   -4.311157405173    1.002728909370
 O   10.976670277731   -3.741555625120    1.063920168275
 N    9.742942773571   -5.668967208039    0.740179126004
 H   10.598959593017   -6.169466147957    0.519343195806
 C    8.522216602710   -6.278209615257    0.591499547302
 H    8.568087817836   -7.350027552722    0.383694715426
 C    7.335896777013   -5.596542763282    0.697507832248
 H    6.376735405851   -6.098328061789    0.618732196596
