25

 N   -5.582432364206    3.343504134123    0.181460583332
 C   -4.384882364206    4.010564134123    0.115420583332
 H   -4.463462364206    5.098834134123    0.175210583332
 C   -5.696412364206    1.957354134123    0.128830583332
 O   -6.744422364206    1.347174134123    0.260480583332
 N   -4.465592364206    1.338094134123   -0.125639416668
 H   -4.513862364206    0.327344134123   -0.236409416668
 C   -3.208162364206    1.914744134123   -0.174169416668
 O   -2.214872364206    1.204824134123   -0.472589416668
 C   -3.182242364206    3.363094134123   -0.017629416668
 H   -2.246182364206    3.904584134123   -0.110199416668
 H   -6.436472364206    3.840004134123    0.418390583332
RB    0.278987635794   -0.154915865877    0.068050583332
 O    2.003972797050   -1.095438318287    0.442007412337
 C    2.997267964973   -1.805358790332    0.143595691299
 N    4.245734168381   -1.217063535319    0.037527449702
 H    4.284670180004   -0.202279422046    0.107665833968
 C    5.476554659414   -1.832031365823   -0.227162488148
 O    6.512994960833   -1.215809191010   -0.411680676311
 N    5.378128849912   -3.220360059671   -0.222836952097
 H    6.231318966837   -3.716184995872   -0.464201301415
 C    4.191107019046   -3.897643966853   -0.097457550996
 H    4.281309296490   -4.986475183369   -0.117227191462
 C    2.984760068181   -3.258925423867    0.044062198102
 H    2.058302716356   -3.806783265336    0.183751794313
