25

 N   -5.770239787586    3.447814824275    0.135448707940
 C   -4.572689787586    4.114874824275    0.069408707940
 H   -4.651269787586    5.203144824275    0.129198707940
 C   -5.884219787586    2.061664824275    0.082818707940
 O   -6.932229787586    1.451484824275    0.214468707940
 N   -4.653399787586    1.442404824275   -0.171651292060
 H   -4.701669787586    0.431654824275   -0.282421292060
 C   -3.395969787586    2.019054824275   -0.220181292060
 O   -2.402679787586    1.309134824275   -0.518601292060
 C   -3.370049787586    3.467404824275   -0.063641292060
 H   -2.433989787586    4.008894824275   -0.156211292060
 H   -6.624279787586    3.944314824275    0.372378707940
RB    0.091180212414   -0.050605175725    0.022038707940
 O    2.333660922047   -1.273284363857    0.508182585646
 C    3.326956089970   -1.983204835902    0.209770864608
 N    4.581870180792   -1.402802501905    0.143942334718
 H    4.627450322423   -0.390658469617    0.242477156439
 C    5.812729338470   -2.020727000345   -0.113584994099
 O    6.857419327871   -1.408492704366   -0.261156067735
 N    5.703263052293   -3.407782571061   -0.149037615106
 H    6.557061863384   -3.904059106761   -0.387301507443
 C    4.508698453125   -4.078179744349   -0.065148637508
 H    4.590657585166   -5.166796478115   -0.112866718350
 C    3.304903362451   -3.433380099623    0.070398329372
 H    2.371588899713   -3.976989686155    0.177156718149
