25

 N   -5.832813096155    3.482544790877    0.120304284523
 C   -4.635263096155    4.149604790877    0.054264284523
 H   -4.713843096155    5.237874790877    0.114054284523
 C   -5.946793096155    2.096394790877    0.067674284523
 O   -6.994803096155    1.486214790877    0.199324284523
 N   -4.715973096155    1.477134790877   -0.186795715477
 H   -4.764243096155    0.466384790877   -0.297565715477
 C   -3.458543096155    2.053784790877   -0.235325715477
 O   -2.465253096155    1.343864790877   -0.533745715477
 C   -3.432623096155    3.502134790877   -0.078785715477
 H   -2.496563096155    4.043624790877   -0.171355715477
 H   -6.686853096155    3.979044790877    0.357234284523
RB    0.028606903845   -0.015875209123    0.006894284523
 O    2.443586129603   -1.332606642497    0.530433845129
 C    3.436881297526   -2.042527114542    0.232022124092
 N    4.693559039273   -1.464708019355    0.178209610341
 H    4.741014595988   -0.453514119609    0.285247312833
 C    5.924398008037   -2.083554605265   -0.077191276460
 O    6.971409101598   -1.472721233600   -0.213703513715
 N    5.811782437508   -3.470001683860   -0.124574226241
 H    6.665750844715   -3.966430620608   -0.361911038286
 C    4.615129898630   -4.138108161811   -0.053084734587
 H    4.694729898465   -5.226499948339   -0.109190586733
 C    3.412130140573   -3.491462493860    0.080717898551
 H    2.476896256315   -4.033616729528    0.177625013782
