25

 N   -5.957927232861    3.551946130703    0.090262945711
 C   -4.760377232861    4.219006130703    0.024222945711
 H   -4.838957232861    5.307276130703    0.084012945711
 C   -6.071907232861    2.165796130703    0.037632945711
 O   -7.119917232861    1.555616130703    0.169282945711
 N   -4.841087232861    1.546536130703   -0.216837054289
 H   -4.889357232861    0.535786130703   -0.327607054289
 C   -3.583657232861    2.123186130703   -0.265367054289
 O   -2.590367232861    1.413266130703   -0.563787054289
 C   -3.557737232861    3.571536130703   -0.108827054289
 H   -2.621677232861    4.113026130703   -0.201397054289
 H   -6.811967232861    4.048446130703    0.327192945711
RB   -0.096507232861    0.053526130703   -0.023147054289
 O    2.663469025149   -1.451309793153    0.575183872118
 C    3.656764193072   -2.161230265198    0.276772151081
 N    4.916507127352   -1.588465297830    0.245186209789
 H    4.967299395534   -0.579226035339    0.367980586855
 C    6.147270080420   -2.209065271584   -0.006296399614
 O    7.198401172742   -1.601079273893   -0.122320889554
 N    6.029008900304   -3.594108567738   -0.075810955331
 H    6.883276191410   -4.090840791628   -0.311431381431
 C    4.828694551914   -4.257692403977   -0.027269535588
 H    4.904055490515   -5.345472028101   -0.098941886416
 C    3.627206558592   -3.607595335251    0.103354296604
 H    2.688578436226   -4.146829944162    0.182017546960
