25

 N   -5.989200073172    3.569284586074    0.082799825136
 C   -4.791650073172    4.236344586074    0.016759825136
 H   -4.870230073172    5.324614586074    0.076549825136
 C   -6.103180073172    2.183134586074    0.030169825136
 O   -7.151190073172    1.572954586074    0.161819825136
 N   -4.872360073172    1.563874586074   -0.224300174864
 H   -4.920630073172    0.553124586074   -0.335070174864
 C   -3.614930073172    2.140524586074   -0.272830174864
 O   -2.621640073172    1.430604586074   -0.571250174864
 C   -3.589010073172    3.588874586074   -0.116290174864
 H   -2.652950073172    4.130364586074   -0.208860174864
 H   -6.843240073172    4.065784586074    0.319729825136
RB   -0.127780073172    0.070864586074   -0.030610174864
 O    2.718445442900   -1.480997460402    0.586418592993
 C    3.711740610823   -2.190917932447    0.288006871956
 N    4.972165018929   -1.619389881696    0.261631909245
 H    5.023714629463   -0.610646039074    0.388125783111
 C    6.202902860891   -2.240409936627    0.011065086549
 O    7.254967184117   -1.633139759126   -0.100150111218
 N    6.083351962995   -3.625071674140   -0.063650158753
 H    6.937686532289   -4.121879033917   -0.298867894227
 C    4.882216874776   -4.287541381676   -0.020491167270
 H    4.956607484956   -5.375140527704   -0.095822716279
 C    3.681090965127   -3.636628215491    0.109396405871
 H    2.741696513545   -4.175135422188    0.183778360480
