25

 N   -6.051740014868    3.603947688239    0.067925537176
 C   -4.854190014868    4.271007688239    0.001885537176
 H   -4.932770014868    5.359277688239    0.061675537176
 C   -6.165720014868    2.217797688239    0.015295537176
 O   -7.213730014868    1.607617688239    0.146945537176
 N   -4.934900014868    1.598537688239   -0.239174462824
 H   -4.983170014868    0.587787688239   -0.349944462824
 C   -3.677470014868    2.175187688239   -0.287704462824
 O   -2.684180014868    1.465267688239   -0.586124462824
 C   -3.651550014868    3.623537688239   -0.131164462824
 H   -2.715490014868    4.165027688239   -0.223734462824
 H   -6.905780014868    4.100447688239    0.304855537176
RB   -0.190320014868    0.105527688239   -0.045484462824
 O    2.828404017331   -1.540386603478    0.608939987934
 C    3.821699185254   -2.250307075523    0.310528266897
 N    5.083396691086   -1.681218135356    0.294193581246
 H    5.136378704569   -0.673468784600    0.427821253526
 C    6.314078315289   -2.303057259949    0.045388195706
 O    7.367905603791   -1.697218162097   -0.056554250908
 N    6.192078868151   -3.686927458778   -0.039360374146
 H    7.046540062302   -4.183883919370   -0.273801914975
 C    4.989403006152   -4.347192683860   -0.006574468427
 H    5.061949302508   -5.434404369622   -0.088966778914
 C    3.788982968818   -3.694699657122    0.121904192931
 H    2.848143635696   -4.231759226852    0.188032782149
