25

 N   -6.145537540064    3.655908858728    0.045734993207
 C   -4.947987540064    4.322968858728   -0.020305006793
 H   -5.026567540064    5.411238858728    0.039484993207
 C   -6.259517540064    2.269758858728   -0.006895006793
 O   -7.307527540064    1.659578858728    0.124754993207
 N   -5.028697540064    1.650498858728   -0.261365006793
 H   -5.076967540064    0.639748858728   -0.372135006793
 C   -3.771267540064    2.227148858728   -0.309895006793
 O   -2.777977540064    1.517228858728   -0.608315006793
 C   -3.745347540064    3.675498858728   -0.153355006793
 H   -2.809287540064    4.216988858728   -0.245925006793
 H   -6.999577540064    4.152408858728    0.282664993207
RB   -0.284117540064    0.157488858728   -0.067675006793
 O    2.993354266322   -1.629503800851    0.642842968316
 C    3.986649434245   -2.339424272895    0.344431247279
 N    5.250053921681   -1.773903225785    0.342266437014
 H    5.304997240682   -0.767647159437    0.485975041959
 C    6.480638598554   -2.396920051410    0.095940098728
 O    7.536874992495   -1.793217206742    0.007098755001
 N    6.355265352873   -3.779546472729   -0.002997461060
 H    7.209898502939   -4.276723095888   -0.236342862331
 C    5.150506209980   -4.436570544883    0.015143330698
 H    5.220506411141   -5.523146137494   -0.077237192029
 C    3.951100858461   -3.781831133851    0.141655341150
 H    3.008293478584   -4.316744023729    0.196126133237
