25

 N   -6.176800540642    3.673220605964    0.038368163797
 C   -4.979250540642    4.340280605964   -0.027671836203
 H   -5.057830540642    5.428550605964    0.032118163797
 C   -6.290780540642    2.287070605964   -0.014261836203
 O   -7.338790540642    1.676890605964    0.117388163797
 N   -5.059960540642    1.667810605964   -0.268731836203
 H   -5.108230540642    0.657060605964   -0.379501836203
 C   -3.802530540642    2.244460605964   -0.317261836203
 O   -2.809240540642    1.534540605964   -0.615681836203
 C   -3.776610540642    3.692810605964   -0.160721836203
 H   -2.840550540642    4.234300605964   -0.253291836203
 H   -7.030840540642    4.169720605964    0.275298163797
RB   -0.315380540642    0.174800605964   -0.075041836203
 O    3.048340523808   -1.659218176235    0.654173980357
 C    4.041635691730   -2.369138648280    0.355762259319
 N    5.305560403950   -1.804781933595    0.358099015497
 H    5.361111992713   -0.799022323470    0.505013378740
 C    6.536109954353   -2.428178242839    0.112558545260
 O    7.593092275497   -1.825182706344    0.027882783345
 N    6.409685018639   -3.810378397617    0.009106236628
 H    7.264371137491   -4.307627356341   -0.223890766335
 C    5.204286468068   -4.466340858652    0.022593122635
 H    5.273491770079   -5.552692431781   -0.072966248084
 C    4.005208011423   -3.810883693345    0.148485702480
 H    3.061792891926   -4.345089143397    0.199250571625
