25

 N   -6.239322882557    3.707831573135    0.023676487554
 C   -5.041772882557    4.374891573135   -0.042363512446
 H   -5.120352882557    5.463161573135    0.017426487554
 C   -6.353302882557    2.321681573135   -0.028953512446
 O   -7.401312882557    1.711501573135    0.102696487554
 N   -5.122482882557    1.702421573135   -0.283423512446
 H   -5.170752882557    0.691671573135   -0.394193512446
 C   -3.865052882557    2.279071573135   -0.331953512446
 O   -2.871762882557    1.569151573135   -0.630373512446
 C   -3.839132882557    3.727421573135   -0.175413512446
 H   -2.903072882557    4.268911573135   -0.267983512446
 H   -7.093362882557    4.204331573135    0.260606487554
RB   -0.377902882557    0.209411573135   -0.089733512446
 O    3.158316698018   -1.718659454305    0.676877987013
 C    4.151611865941   -2.428579926350    0.378466265976
 N    5.416510904050   -1.866513716364    0.389495272463
 H    5.473216752631   -0.861742932581    0.542604126850
 C    6.646986703176   -2.490650101967    0.145469952399
 O    7.705382792313   -1.889059555129    0.068842533322
 N    6.518558557015   -3.871984539460    0.033290206145
 H    7.373344684151   -4.369376449640   -0.199033827571
 C    5.311956041199   -4.525853366836    0.037788818351
 H    5.379645549738   -5.611742335750   -0.063916566098
 C    4.113515018556   -3.869004635370    0.162492633929
 H    3.168950320268   -4.401809195691    0.206098295821
