25

 N   -6.426866531435    3.811569512833   -0.020094814954
 C   -5.229316531435    4.478629512833   -0.086134814954
 H   -5.307896531435    5.566899512833   -0.026344814954
 C   -6.540846531435    2.425419512833   -0.072724814954
 O   -7.588856531435    1.815239512833    0.058925185046
 N   -5.310026531435    1.806159512833   -0.327194814954
 H   -5.358296531435    0.795409512833   -0.437964814954
 C   -4.052596531435    2.382809512833   -0.375724814954
 O   -3.059306531435    1.672889512833   -0.674144814954
 C   -4.026676531435    3.831159512833   -0.219184814954
 H   -3.090616531435    4.372649512833   -0.311754814954
 H   -7.280906531435    4.308069512833    0.216835185046
RB   -0.565446531435    0.313149512833   -0.133504814954
 O    3.488268597517   -1.897078250330    0.745293733207
 C    4.481563765440   -2.606998722375    0.446882012170
 N    5.748927921104   -2.051495984518    0.481730902688
 H    5.808659308789   -1.049639846235    0.651844517691
 C    6.979161419159   -2.677710088628    0.241841943008
 O    8.041251447316   -2.080235832558    0.187302834808
 N    6.845430610872   -4.056382953138    0.105679848506
 H    7.700475386259   -4.554188828719   -0.124798424704
 C    5.635737045592   -4.704217780496    0.085534708072
 H    5.699402387444   -5.788635249913   -0.033066235724
 C    4.439085023433   -4.043517482906    0.207030539384
 H    3.491532429135   -4.572246530888    0.230995041432
