25

 N   -6.551881425033    3.880654728599   -0.049053754456
 C   -5.354331425033    4.547714728599   -0.115093754456
 H   -5.432911425033    5.635984728599   -0.055303754456
 C   -6.665861425033    2.494504728599   -0.101683754456
 O   -7.713871425033    1.884324728599    0.029966245544
 N   -5.435041425033    1.875244728599   -0.356153754456
 H   -5.483311425033    0.864494728599   -0.466923754456
 C   -4.177611425033    2.451894728599   -0.404683754456
 O   -3.184321425033    1.741974728599   -0.703103754456
 C   -4.151691425033    3.900244728599   -0.248143754456
 H   -3.215631425033    4.441734728599   -0.340713754456
 H   -7.405921425033    4.377154728599    0.187876245544
RB   -0.690461425033    0.382234728599   -0.162463754456
 O    3.708250736170   -2.016097525046    0.791126159506
 C    4.701545904093   -2.726017997091    0.492714438469
 N    5.970237973523   -2.174636134172    0.541786978761
 H    6.031679278579   -1.174664533914    0.722075545258
 C    7.200298516581   -2.802125826762    0.304356940635
 O    8.264467524172   -2.207296697709    0.263030684909
 N    7.063532720419   -4.179005991948    0.153827740420
 H    7.918721105633   -4.677074691904   -0.075547253898
 C    5.852139841113   -4.823029059431    0.118958088614
 H    5.913493398814   -5.906424521247   -0.009769227346
 C    4.656585771067   -4.160002014857    0.238573247190
 H    3.707363189396   -4.686131062949    0.250793627641
