25

 N   -6.645637467720    3.932433223914   -0.070671635859
 C   -5.448087467720    4.599493223914   -0.136711635859
 H   -5.526667467720    5.687763223914   -0.076921635859
 C   -6.759617467720    2.546283223914   -0.123301635859
 O   -7.807627467720    1.936103223914    0.008348364141
 N   -5.528797467720    1.927023223914   -0.377771635859
 H   -5.577067467720    0.916273223914   -0.488541635859
 C   -4.271367467720    2.503673223914   -0.426301635859
 O   -3.278077467720    1.793753223914   -0.724721635859
 C   -4.245447467720    3.952023223914   -0.269761635859
 H   -3.309387467720    4.493513223914   -0.362331635859
 H   -7.499677467720    4.428933223914    0.166258364141
RB   -0.784217467720    0.434013223914   -0.184081635859
 O    3.873242467672   -2.105397397592    0.825601802454
 C    4.866537635595   -2.815317869637    0.527190081417
 N    6.136090597429   -2.266896320625    0.586170770428
 H    6.198679973877   -1.268301618347    0.773556450345
 C    7.366018079389   -2.895290122336    0.350448696809
 O    8.431578866644   -2.302386873094    0.318336789333
 N    7.227196604613   -4.270830981549    0.189890747217
 H    8.082480204609   -4.769089721113   -0.038715210987
 C    6.014685169062   -4.912105925854    0.144760086199
 H    6.074468925594   -5.994725672600    0.008962096484
 C    4.819909138171   -4.247446128001    0.263080716383
 H    3.869574067324   -4.771689978570    0.267113179721
