25

 N   -6.708139649010    3.966936330300   -0.085039604872
 C   -5.510589649010    4.633996330300   -0.151079604872
 H   -5.589169649010    5.722266330300   -0.091289604872
 C   -6.822119649010    2.580786330300   -0.137669604872
 O   -7.870129649010    1.970606330300   -0.006019604872
 N   -5.591299649010    1.961526330300   -0.392139604872
 H   -5.639569649010    0.950776330300   -0.502909604872
 C   -4.333869649010    2.538176330300   -0.440669604872
 O   -3.340579649010    1.828256330300   -0.739089604872
 C   -4.307949649010    3.986526330300   -0.284129604872
 H   -3.371889649010    4.528016330300   -0.376699604872
 H   -7.562179649010    4.463436330300    0.151890395128
RB   -0.846719649010    0.468516330300   -0.198449604872
 O    3.983238802508   -2.164946536448    0.848629516341
 C    4.976533970431   -2.874867008493    0.550217795303
 N    6.246604780152   -2.328358569201    0.615473477645
 H    6.309902874962   -1.330663251344    0.807357834532
 C    7.476442622760   -2.957331589704    0.380830989447
 O    8.542860762690   -2.365683580588    0.354559083582
 N    7.336344213604   -4.331985612247    0.213912846458
 H    8.191686056106   -4.830367676212   -0.014205857033
 C    6.123152196574   -4.971480491498    0.162282028846
 H    6.181959091610   -6.053581740929    0.021998948336
 C    4.928874548272   -4.305781544507    0.279789446236
 H    3.977856608815   -4.828799866213    0.278633379731
