25

 N   -6.739390285930    3.984183303008   -0.092211182150
 C   -5.541840285930    4.651243303008   -0.158251182150
 H   -5.620420285930    5.739513303008   -0.098461182150
 C   -6.853370285930    2.598033303008   -0.144841182150
 O   -7.901380285930    1.987853303008   -0.013191182150
 N   -5.622550285930    1.978773303008   -0.399311182150
 H   -5.670820285930    0.968023303008   -0.510081182150
 C   -4.365120285930    2.555423303008   -0.447841182150
 O   -3.371830285930    1.845503303008   -0.746261182150
 C   -4.339200285930    4.003773303008   -0.291301182150
 H   -3.403140285930    4.545263303008   -0.383871182150
 H   -7.593430285930    4.480683303008    0.144718817850
RB   -0.877970285930    0.485763303008   -0.205621182150
 O    4.038237423650   -2.194725686360    0.860155780513
 C    5.031532591573   -2.904646158405    0.561744059476
 N    6.301846942959   -2.359076515146    0.630043788740
 H    6.365483693086   -1.361825166592    0.824111597352
 C    7.531639796015   -2.988332377599    0.395924428069
 O    8.598467094629   -2.397303257555    0.372486785425
 N    7.390928931514   -4.362545362264    0.225918434679
 H    8.246298450982   -4.860988083950   -0.001963838574
 C    6.177414555393   -5.001165611150    0.171133867857
 H    6.235752421251   -6.083007704007    0.028673041208
 C    4.983380256212   -4.334961135837    0.288248648525
 H    4.032037130363   -4.857376087638    0.284574749556
