25

 N   -6.770640660062    4.001427302371   -0.099374811136
 C   -5.573090660062    4.668487302371   -0.165414811136
 H   -5.651670660062    5.756757302371   -0.105624811136
 C   -6.884620660062    2.615277302371   -0.152004811136
 O   -7.932630660062    2.005097302371   -0.020354811136
 N   -5.653800660062    1.996017302371   -0.406474811136
 H   -5.702070660062    0.985267302371   -0.517244811136
 C   -4.396370660062    2.572667302371   -0.455004811136
 O   -3.403080660062    1.862747302371   -0.753424811136
 C   -4.370450660062    4.021017302371   -0.298464811136
 H   -3.434390660062    4.562507302371   -0.391034811136
 H   -7.624680660062    4.497927302371    0.137555188864
RB   -0.909220660062    0.503007302371   -0.212784811136
 O    4.093236307581   -2.224507809617    0.871689992978
 C    5.086531475504   -2.934428281662    0.573278271941
 N    6.357079699113   -2.389785769976    0.644562112657
 H    6.421045164370   -1.392974524001    0.840771087099
 C    7.586827492161   -3.019320086425    0.410955206065
 O    8.654051604176   -2.428904000824    0.390296805916
 N    7.445520676468   -4.393093836934    0.237920589145
 H    8.300916961344   -4.891596550814    0.010270128628
 C    6.231695242555   -5.030849618028    0.180044067418
 H    6.289576398565   -6.112432808558    0.035447105686
 C    5.037900505103   -4.364148659738    0.296775123482
 H    4.086242458218   -4.885966493539    0.290632434631
