25

 N   -6.895640051058    4.070374725181   -0.127954339603
 C   -5.698090051058    4.737434725181   -0.193994339603
 H   -5.776670051058    5.825704725181   -0.134204339603
 C   -7.009620051058    2.684224725181   -0.180584339603
 O   -8.057630051058    2.074044725181   -0.048934339603
 N   -5.778800051058    2.064964725181   -0.435054339603
 H   -5.827070051058    1.054214725181   -0.545824339603
 C   -4.521370051058    2.641614725181   -0.483584339603
 O   -3.528080051058    1.931694725181   -0.782004339603
 C   -4.495450051058    4.089964725181   -0.327044339603
 H   -3.559390051058    4.631454725181   -0.419614339603
 H   -7.749680051058    4.566874725181    0.108975660397
RB   -1.034220051058    0.571954725181   -0.241364339603
 O    4.313233948836   -2.343664877289    0.917901830311
 C    5.306529116759   -3.053585349334    0.619490109274
 N    6.577924080184   -2.512537457881    0.702144002907
 H    6.643112234725   -1.517447453655    0.906517657024
 C    7.807491482889   -3.143143487287    0.470486249355
 O    8.876188497221   -2.555120800129    0.460424448079
 N    7.663954431081   -4.515181055245    0.285897681810
 H    8.519449360963   -5.013917163590    0.059130816328
 C    6.448988893092   -5.149578806929    0.216237461768
 H    6.505157965223   -6.230131404414    0.063489869300
 C    5.256116070321   -4.480977885245    0.331517202477
 H    4.303293265126   -5.000469361747    0.315963095530
