25

 N   -7.114384146725    4.190931057254   -0.177710565034
 C   -5.916834146725    4.857991057254   -0.243750565034
 H   -5.995414146725    5.946261057254   -0.183960565034
 C   -7.228364146725    2.804781057254   -0.230340565034
 O   -8.276374146725    2.194601057254   -0.098690565034
 N   -5.997544146725    2.185521057254   -0.484810565034
 H   -6.045814146725    1.174771057254   -0.595580565034
 C   -4.740114146725    2.762171057254   -0.533340565034
 O   -3.746824146725    2.052251057254   -0.831760565034
 C   -4.714194146725    4.210521057254   -0.376800565034
 H   -3.778134146725    4.752011057254   -0.469370565034
 H   -7.968424146725    4.687431057254    0.059219434966
RB   -1.252964146725    0.692511057254   -0.291120565034
 O    4.698234659609   -2.552291403560    0.999030495032
 C    5.691529827532   -3.262211875605    0.700618773994
 N    6.964117229352   -2.727037919364    0.801215897661
 H    7.031138379013   -1.734808057454    1.018495139952
 C    8.193371741223   -3.359370079064    0.572623111783
 O    9.264266611169   -2.775311237012    0.579307080857
 N    8.046446280441   -4.728464761261    0.369754749160
 H    8.902086066483   -5.227584794151    0.144383408011
 C    6.829827702127   -5.357354907953    0.281489634901
 H    6.883385916955   -6.436138063081    0.115842028711
 C    5.638439387928   -4.685728832792    0.394513890501
 H    4.683892427676   -5.201382999640    0.364091803327
