25

 N   -7.176881986445    4.225353924225   -0.191873193379
 C   -5.979331986445    4.892413924225   -0.257913193379
 H   -6.057911986445    5.980683924225   -0.198123193379
 C   -7.290861986445    2.839203924225   -0.244503193379
 O   -8.338871986445    2.229023924225   -0.112853193379
 N   -6.060041986445    2.219943924225   -0.498973193379
 H   -6.108311986445    1.209193924225   -0.609743193379
 C   -4.802611986445    2.796593924225   -0.547503193379
 O   -3.809321986445    2.086673924225   -0.845923193379
 C   -4.776691986445    4.244943924225   -0.390963193379
 H   -3.840631986445    4.786433924225   -0.483533193379
 H   -8.030921986445    4.721853924225    0.045056806621
RB   -1.315461986445    0.726933924225   -0.305283193379
 O    4.808235336014   -2.611920781829    1.022263549587
 C    5.801530503937   -3.321841253874    0.723851828550
 N    7.074402165739   -2.788253790445    0.829169402829
 H    7.141885767955   -1.796805812330    1.049848066556
 C    8.303568586831   -3.421047189364    0.601380683959
 O    9.375015752949   -2.838069385896    0.612474816733
 N    8.155778565511   -4.789326106862    0.393693838132
 H    9.011454245323   -5.288550335620    0.168689854834
 C    6.938755036637   -5.416724693115    0.300532385620
 H    6.991645026630   -6.495013061802    0.131483426694
 C    5.747763327212   -4.744297283687    0.412970410911
 H    4.792786113832   -5.258907946029    0.378633686735
