25

 N   -7.208130893820    4.242561957764   -0.198946377531
 C   -6.010580893820    4.909621957764   -0.264986377531
 H   -6.089160893820    5.997891957764   -0.205196377531
 C   -7.322110893820    2.856411957764   -0.251576377531
 O   -8.370120893820    2.246231957764   -0.119926377531
 N   -6.091290893820    2.237151957764   -0.506046377531
 H   -6.139560893820    1.226401957764   -0.616816377531
 C   -4.833860893820    2.813801957764   -0.554576377531
 O   -3.840570893820    2.103881957764   -0.852996377531
 C   -4.807940893820    4.262151957764   -0.398036377531
 H   -3.871880893820    4.803641957764   -0.490606377531
 H   -8.062170893820    4.739061957764    0.037983622469
RB   -1.346710893820    0.744141957764   -0.312356377531
 O    4.863235686702   -2.641738870911    1.033888206886
 C    5.856530854625   -3.351659342956    0.735476485849
 N    7.129536454333   -2.818850548272    0.843092337003
 H    7.197242218615   -1.827787713165    1.065426744719
 C    8.358659110767   -3.451869594823    0.615694757762
 O    9.430371250866   -2.869423918716    0.628936813817
 N    8.210452224123   -4.819745037963    0.405660467219
 H    9.066145044192   -5.319020481273    0.180835376337
 C    6.993236069145   -5.446410957510    0.310114826614
 H    7.045803539428   -6.524453988309    0.139408668512
 C    5.802438376314   -4.773592565868    0.422268511421
 H    4.847255218399   -5.287690018653    0.386025355152
