25

 N   -7.426873940879    4.362958687271   -0.248319418596
 C   -6.229323940879    5.030018687271   -0.314359418596
 H   -6.307903940879    6.118288687271   -0.254569418596
 C   -7.540853940879    2.976808687271   -0.300949418596
 O   -8.588863940879    2.366628687271   -0.169299418596
 N   -6.310033940879    2.357548687271   -0.555419418596
 H   -6.358303940879    1.346798687271   -0.666189418596
 C   -5.052603940879    2.934198687271   -0.603949418596
 O   -4.059313940879    2.224278687271   -0.902369418596
 C   -5.026683940879    4.382548687271   -0.447409418596
 H   -4.090623940879    4.924038687271   -0.539979418596
 H   -8.280913940879    4.859458687271   -0.011389418596
RB   -1.565453940879    0.864538687271   -0.361729418596
 O    5.248237446083   -2.850524999748    1.115400055972
 C    6.241532614006   -3.560445471793    0.816988334935
 N    7.515341493338   -3.032828288919    0.939628814681
 H    7.584451057458   -2.044355592814    1.172797851438
 C    8.744163857000   -3.667339994740    0.714782710335
 O    9.817544585195   -3.088466949932    0.742078117165
 N    8.593297731903   -5.032475708350    0.489379054366
 H    9.449097164329   -5.532093804408    0.265724003787
 C    7.374895819108   -5.654247208676    0.378242685965
 H    7.425400630069   -6.730614446075    0.196684040005
 C    6.185381376023   -4.978859356512    0.488555066242
 H    5.228909197016   -5.489518278115    0.439841012083
