25

 N   -7.520621771891    4.414527577296   -0.269411316292
 C   -6.323071771891    5.081587577296   -0.335451316292
 H   -6.401651771891    6.169857577296   -0.275661316292
 C   -7.634601771891    3.028377577296   -0.322041316292
 O   -8.682611771891    2.418197577296   -0.190391316292
 N   -6.403781771891    2.409117577296   -0.576511316292
 H   -6.452051771891    1.398367577296   -0.687281316292
 C   -5.146351771891    2.985767577296   -0.625041316292
 O   -4.153061771891    2.275847577296   -0.923461316292
 C   -5.120431771891    4.434117577296   -0.468501316292
 H   -4.184371771891    4.975607577296   -0.561071316292
 H   -8.374661771891    4.911027577296   -0.032481316292
RB   -1.659201771891    0.916107577296   -0.382821316292
 O    5.413237389260   -2.940034477584    1.150401682627
 C    6.406532557183   -3.649954949628    0.851989961590
 N    7.680623268010   -3.124431405786    0.980549307613
 H    7.750262612080   -2.137013699660    1.217991590887
 C    8.909320541805   -3.759539523633    0.756705690519
 O    9.983328139775   -3.182118857364    0.789542903717
 N    8.757438394351   -5.123547075812    0.525236203800
 H    9.613277222484   -5.623303913294    0.302042351400
 C    7.538604543041   -5.743340320641    0.407955818972
 H    7.588318686138   -6.819012956571    0.222112896353
 C    6.349602759096   -5.066933794351    0.517551217460
 H    5.392650209203   -5.576198156790    0.463920546170
