25

 N   -7.645620036178    4.483260737088   -0.297477363397
 C   -6.448070036178    5.150320737088   -0.363517363397
 H   -6.526650036178    6.238590737088   -0.303727363397
 C   -7.759600036178    3.097110737088   -0.350107363397
 O   -8.807610036178    2.486930737088   -0.218457363397
 N   -6.528780036178    2.477850737088   -0.604577363397
 H   -6.577050036178    1.467100737088   -0.715347363397
 C   -5.271350036178    3.054500737088   -0.653107363397
 O   -4.278060036178    2.344580737088   -0.951527363397
 C   -5.245430036178    4.502850737088   -0.496567363397
 H   -4.309370036178    5.044340737088   -0.589137363397
 H   -8.499660036178    4.979760737088   -0.060547363397
RB   -1.784200036178    0.984840737088   -0.410887363397
 O    5.633236157223   -3.059405808273    1.197127001323
 C    6.626531325146   -3.769326280318    0.898715280286
 N    7.900949133739   -3.246480142603    1.034732946119
 H    7.971237227991   -2.260419860577    1.277563970741
 C    9.129483282360   -3.882346588006    0.812150408208
 O   10.204256123467   -3.306792467881    0.851975321568
 N    8.976346421209   -5.244892979143    0.573028376276
 H    9.832232782866   -5.744827685187    0.350415892970
 C    7.756996783476   -5.862152839964    0.448004229493
 H    7.805732353024   -6.936922326400    0.256755431096
 C    6.568646772463   -5.184457466032    0.556702959371
 H    5.611111128073   -5.691932182722    0.496873834832
