25

 N   -7.739369756643    4.534792737723   -0.318487790603
 C   -6.541819756643    5.201852737723   -0.384527790603
 H   -6.620399756643    6.290122737723   -0.324737790603
 C   -7.853349756643    3.148642737723   -0.371117790603
 O   -8.901359756643    2.538462737723   -0.239467790603
 N   -6.622529756643    2.529382737723   -0.625587790603
 H   -6.670799756643    1.518632737723   -0.736357790603
 C   -5.365099756643    3.106032737723   -0.674117790603
 O   -4.371809756643    2.396112737723   -0.972537790603
 C   -5.339179756643    4.554382737723   -0.517577790603
 H   -4.403119756643    5.095872737723   -0.610147790603
 H   -8.593409756643    5.031292737723   -0.081557790603
RB   -1.877949756643    1.036372737723   -0.431897790603
 O    5.798234210947   -3.148952175500    1.232210098468
 C    6.791529378870   -3.858872647545    0.933798377431
 N    8.066160275988   -3.337953265758    1.075109076917
 H    8.136895989598   -2.352875371695    1.321767147831
 C    9.294574920878   -3.974362497465    0.853420044897
 O   10.369874080498   -3.400157770086    0.898207066196
 N    9.140564982784   -5.335845044497    0.608861001932
 H    9.996483645519   -5.835908046927    0.386661252871
 C    7.920868660193   -5.951279427289    0.478340071670
 H    7.968921806740   -7.025389019232    0.283249868940
 C    6.732985123854   -5.272665832734    0.586407068393
 H    5.775050761673   -5.778848477918    0.522176935529
