25

 N   -7.895621501660    4.620647786201   -0.353437306443
 C   -6.698071501660    5.287707786201   -0.419477306443
 H   -6.776651501660    6.375977786201   -0.359687306443
 C   -8.009601501660    3.234497786201   -0.406067306443
 O   -9.057611501660    2.624317786201   -0.274417306443
 N   -6.778781501660    2.615237786201   -0.660537306443
 H   -6.827051501660    1.604487786201   -0.771307306443
 C   -5.521351501660    3.191887786201   -0.709067306443
 O   -4.528061501660    2.481967786201   -1.007487306443
 C   -5.495431501660    4.640237786201   -0.552527306443
 H   -4.559371501660    5.181727786201   -0.645097306443
 H   -8.749661501660    5.117147786201   -0.116507306443
RB   -2.034201501660    1.122227786201   -0.466847306443
 O    6.073228756244   -3.298227740124    1.290749789879
 C    7.066523924167   -4.008148212169    0.992338068842
 N    8.341456929029   -3.490294503201    1.141947591337
 H    8.412872979268   -2.506788864258    1.394610624712
 C    9.569677930997   -4.127562507693    0.921657015787
 O   10.645774143918   -3.555515010109    0.974229156176
 N    9.414328289529   -5.487331926134    0.668563100475
 H   10.270295190346   -5.987599551781    0.447010714942
 C    8.194120921606   -6.099857862112    0.529421916341
 H    8.241124355658   -7.172901001952    0.328300547932
 C    7.006975349053   -5.419798650657    0.636506186352
 H    6.048441196297   -5.923918551255    0.565372324362
