25

 N   -7.958123030372    4.654979390381   -0.367395100116
 C   -6.760573030372    5.322039390381   -0.433435100116
 H   -6.839153030372    6.410309390381   -0.373645100116
 C   -8.072103030372    3.268829390381   -0.420025100116
 O   -9.120113030372    2.658649390381   -0.288375100116
 N   -6.841283030372    2.649569390381   -0.674495100116
 H   -6.889553030372    1.638819390381   -0.785265100116
 C   -5.583853030372    3.226219390381   -0.723025100116
 O   -4.590563030372    2.516299390381   -1.021445100116
 C   -5.557933030372    4.674569390381   -0.566485100116
 H   -4.621873030372    5.216059390381   -0.659055100116
 H   -8.812163030372    5.151479390381   -0.130465100116
RB   -2.096703030372    1.156559390381   -0.480805100116
 O    6.183225743658   -3.357948381186    1.314187679106
 C    7.176520911581   -4.067868853231    1.015775958069
 N    8.451558307483   -3.551193016846    1.168535112128
 H    8.523225671457   -2.568294360206    1.423478678855
 C    9.679703802335   -4.188789436970    0.948774502782
 O   10.756093484119   -3.617574002935    1.004302961873
 N    9.523855070143   -5.547894183802    0.692438059388
 H   10.379839506400   -6.048240583429    0.471131445462
 C    8.303464182112   -6.159301416409    0.550024617518
 H    8.350075718461   -7.231929595655    0.346611586060
 C    7.116600801963   -5.478691640532    0.656738404081
 H    6.157847148459   -5.982016817777    0.582983266335
