25

 N   -8.020625055772    4.689305356264   -0.381341133583
 C   -6.823075055772    5.356365356264   -0.447381133583
 H   -6.901655055772    6.444635356264   -0.387591133583
 C   -8.134605055772    3.303155356264   -0.433971133583
 O   -9.182615055772    2.692975356264   -0.302321133583
 N   -6.903785055772    2.683895356264   -0.688441133583
 H   -6.952055055772    1.673145356264   -0.799211133583
 C   -5.646355055772    3.260545356264   -0.736971133583
 O   -4.653065055772    2.550625356264   -1.035391133583
 C   -5.620435055772    4.708895356264   -0.580431133583
 H   -4.684375055772    5.250385356264   -0.673001133583
 H   -8.874665055772    5.185805356264   -0.144411133583
RB   -2.159205055772    1.190885356264   -0.494751133583
 O    6.293222234383   -3.417674660544    1.337637328540
 C    7.286517402306   -4.127595132589    1.039225607503
 N    8.561650750228   -3.612070766989    1.195043493162
 H    8.633558532058   -2.629767001650    1.452202560694
 C    9.789721852570   -4.249987439285    0.975797139265
 O   10.866391758631   -3.679587102906    1.034197469238
 N    9.633393382349   -5.608439038076    0.716309999811
 H   10.489394439830   -6.108862526897    0.495242106333
 C    8.412829785981   -6.218751995948    0.570718403984
 H    8.459064168720   -7.290971793118    0.365078437029
 C    7.226241571730   -5.537606534159    0.677073714554
 H    6.267279052439   -6.040153658719    0.600772360110
