7

 H   -0.977258315071    1.857604664635   -0.527451238878
 H    0.562300684929    1.948583664635    0.374795761122
 H    0.562300684929    1.948583664635   -1.429698238878
 C    0.078489684929    1.552063664635   -0.527451238878
 S    0.078489684929   -0.280662335365   -0.527451238878
 H    1.419072684929   -0.437053335365   -0.527451238878
 K   -0.129095187781   -0.385249226662    0.649821075751
