7

 H   -0.961757667667    1.865414311378   -0.615359778690
 H    0.577801332333    1.956393311378    0.286887221310
 H    0.577801332333    1.956393311378   -1.517606778690
 C    0.093990332333    1.559873311378   -0.615359778690
 S    0.093990332333   -0.272852688622   -0.615359778690
 H    1.434573332333   -0.429243688622   -0.615359778690
 K   -0.148192019163   -0.394870728469    0.758124588376
