7

 H   -0.946257020264    1.873223958121   -0.703268318503
 H    0.593301979736    1.964202958121    0.198978681497
 H    0.593301979736    1.964202958121   -1.605515318503
 C    0.109490979736    1.567682958121   -0.703268318503
 S    0.109490979736   -0.265043041879   -0.703268318503
 H    1.450073979736   -0.421434041879   -0.703268318503
 K   -0.167288850544   -0.404492230275    0.866428101001
