7

 H   -0.938506696562    1.877128781492   -0.747222588410
 H    0.601052303438    1.968107781492    0.155024411590
 H    0.601052303438    1.968107781492   -1.649469588410
 C    0.117241303438    1.571587781492   -0.747222588410
 S    0.117241303438   -0.261138218508   -0.747222588410
 H    1.457824303438   -0.417529218508   -0.747222588410
 K   -0.176837266235   -0.409302981179    0.920579857314
