7

 H   -0.930756372860    1.881033604864   -0.791176858316
 H    0.608802627140    1.972012604864    0.111070141684
 H    0.608802627140    1.972012604864   -1.693423858316
 C    0.124991627140    1.575492604864   -0.791176858316
 S    0.124991627140   -0.257233395136   -0.791176858316
 H    1.465574627140   -0.413624395136   -0.791176858316
 K   -0.186385681925   -0.414113732082    0.974731613626
