7

 H   -0.868753783245    1.912272191836   -1.142811017568
 H    0.670805216755    2.003251191836   -0.240564017568
 H    0.670805216755    2.003251191836   -2.045058017568
 C    0.186994216755    1.606731191836   -1.142811017568
 S    0.186994216755   -0.225994808164   -1.142811017568
 H    1.527577216755   -0.382385808164   -1.142811017568
 K   -0.262773007450   -0.452599739308    1.407945664127
