7

 H   -0.853253135841    1.920081838579   -1.230719557381
 H    0.686305864159    2.011060838579   -0.328472557381
 H    0.686305864159    2.011060838579   -2.132966557381
 C    0.202494864159    1.614540838579   -1.230719557381
 S    0.202494864159   -0.218185161421   -1.230719557381
 H    1.543077864159   -0.374576161421   -1.230719557381
 K   -0.281869838832   -0.462221241115    1.516249176752
