7

 H   -0.845502812140    1.923986661950   -1.274673827287
 H    0.694056187860    2.014965661950   -0.372426827287
 H    0.694056187860    2.014965661950   -2.176920827287
 C    0.210245187860    1.618445661950   -1.274673827287
 S    0.210245187860   -0.214280338050   -1.274673827287
 H    1.550828187860   -0.370671338050   -1.274673827287
 K   -0.291418254522   -0.467031992018    1.570400933065
