7

 H   -0.822251841034    1.935701132064   -1.406536637007
 H    0.717307158966    2.026680132064   -0.504289637007
 H    0.717307158966    2.026680132064   -2.308783637007
 C    0.233496158966    1.630160132064   -1.406536637007
 S    0.233496158966   -0.202565867936   -1.406536637007
 H    1.574079158966   -0.358956867936   -1.406536637007
 K   -0.320063501594   -0.481464244728    1.732856202002
