7

 H   -0.752498927717    1.970844542408   -1.802125066165
 H    0.787060072283    2.061823542408   -0.899878066165
 H    0.787060072283    2.061823542408   -2.704372066165
 C    0.303249072283    1.665303542408   -1.802125066165
 S    0.303249072283   -0.167422457592   -1.802125066165
 H    1.643832072283   -0.323813457592   -1.802125066165
 K   -0.405999242810   -0.524761002858    2.220222008816
