7

 H   -0.744748604016    1.974749365779   -1.846079336071
 H    0.794810395984    2.065728365779   -0.943832336071
 H    0.794810395984    2.065728365779   -2.748326336071
 C    0.310999395984    1.669208365779   -1.846079336071
 S    0.310999395984   -0.163517634221   -1.846079336071
 H    1.651582395984   -0.319908634221   -1.846079336071
 K   -0.415547658501   -0.529571753761    2.274373765128
