7

 H   -0.736998280314    1.978654189151   -1.890033605978
 H    0.802560719686    2.069633189151   -0.987786605978
 H    0.802560719686    2.069633189151   -2.792280605978
 C    0.318749719686    1.673113189151   -1.890033605978
 S    0.318749719686   -0.159612810849   -1.890033605978
 H    1.659332719686   -0.316003810849   -1.890033605978
 K   -0.425096074192   -0.534382504664    2.328525521441
