7

 H   -0.705996985506    1.994273482637   -2.065850685604
 H    0.833562014494    2.085252482637   -1.163603685604
 H    0.833562014494    2.085252482637   -2.968097685604
 C    0.349751014494    1.688732482637   -2.065850685604
 S    0.349751014494   -0.143993517363   -2.065850685604
 H    1.690334014494   -0.300384517363   -2.065850685604
 K   -0.463289736954   -0.553625508277    2.545132546691
