7

 H   -0.682746014401    2.005987952751   -2.197713495323
 H    0.856812985599    2.096966952751   -1.295466495323
 H    0.856812985599    2.096966952751   -3.099960495323
 C    0.373001985599    1.700446952751   -2.197713495323
 S    0.373001985599   -0.132279047249   -2.197713495323
 H    1.713584985599   -0.288670047249   -2.197713495323
 K   -0.491934984026   -0.568057760987    2.707587815629
