7

 H   -0.643994395891    2.025512069608   -2.417484844855
 H    0.895564604109    2.116491069608   -1.515237844855
 H    0.895564604109    2.116491069608   -3.319731844855
 C    0.411753604109    1.719971069608   -2.417484844855
 S    0.411753604109   -0.112754930392   -2.417484844855
 H    1.752336604109   -0.269145930392   -2.417484844855
 K   -0.539677062479   -0.592111515504    2.978346597192
