7

 H   -0.636244072190    2.029416892980   -2.461439114762
 H    0.903314927810    2.120395892980   -1.559192114762
 H    0.903314927810    2.120395892980   -3.363686114762
 C    0.419503927810    1.723875892980   -2.461439114762
 S    0.419503927810   -0.108850107020   -2.461439114762
 H    1.760086927810   -0.265241107020   -2.461439114762
 K   -0.549225478170   -0.596922266407    3.032498353504
