7

 H   -0.628493748488    2.033321716351   -2.505393384668
 H    0.911065251512    2.124300716351   -1.603146384668
 H    0.911065251512    2.124300716351   -3.407640384668
 C    0.427254251512    1.727780716351   -2.505393384668
 S    0.427254251512   -0.104945283649   -2.505393384668
 H    1.767837251512   -0.261336283649   -2.505393384668
 K   -0.558773893861   -0.601733017310    3.086650109817
