7

 H   -0.612993101084    2.041131363094   -2.593301924481
 H    0.926565898916    2.132110363094   -1.691054924481
 H    0.926565898916    2.132110363094   -3.495548924481
 C    0.442754898916    1.735590363094   -2.593301924481
 S    0.442754898916   -0.097135636906   -2.593301924481
 H    1.783337898916   -0.253526636906   -2.593301924481
 K   -0.577870725242   -0.611354519117    3.194953622442
