7

 H   -0.597492453680    2.048941009837   -2.681210464294
 H    0.942066546320    2.139920009837   -1.778963464294
 H    0.942066546320    2.139920009837   -3.583457464294
 C    0.458255546320    1.743400009837   -2.681210464294
 S    0.458255546320   -0.089325990163   -2.681210464294
 H    1.798838546320   -0.245716990163   -2.681210464294
 K   -0.596967556623   -0.620976020923    3.303257135067
