7

 H   -0.558740835171    2.068465126695   -2.900981813827
 H    0.980818164829    2.159444126695   -1.998734813827
 H    0.980818164829    2.159444126695   -3.803228813827
 C    0.497007164829    1.762924126695   -2.900981813827
 S    0.497007164829   -0.069801873305   -2.900981813827
 H    1.837590164829   -0.226192873305   -2.900981813827
 K   -0.644709635077   -0.645029775440    3.574015916630
