7

 H   -0.543240187767    2.076274773438   -2.988890353640
 H    0.996318812233    2.167253773438   -2.086643353640
 H    0.996318812233    2.167253773438   -3.891137353640
 C    0.512507812233    1.770733773438   -2.988890353640
 S    0.512507812233   -0.061992226562   -2.988890353640
 H    1.853090812233   -0.218383226562   -2.988890353640
 K   -0.663806466458   -0.654651277246    3.682319429255
