7

 H   -0.527739540364    2.084084420181   -3.076798893452
 H    1.011819459636    2.175063420181   -2.174551893452
 H    1.011819459636    2.175063420181   -3.979045893452
 C    0.528008459636    1.778543420181   -3.076798893452
 S    0.528008459636   -0.054182579819   -3.076798893452
 H    1.868591459636   -0.210573579819   -3.076798893452
 K   -0.682903297839   -0.664272779053    3.790622941880
