7

 H   -0.512238892960    2.091894066924   -3.164707433265
 H    1.027320107040    2.182873066924   -2.262460433265
 H    1.027320107040    2.182873066924   -4.066954433265
 C    0.543509107040    1.786353066924   -3.164707433265
 S    0.543509107040   -0.046372933076   -3.164707433265
 H    1.884092107040   -0.202763933076   -3.164707433265
 K   -0.702000129221   -0.673894280860    3.898926454506
