7

 H   -0.488987921854    2.103608537038   -3.296570242985
 H    1.050571078146    2.194587537038   -2.394323242985
 H    1.050571078146    2.194587537038   -4.198817242985
 C    0.566760078146    1.798067537038   -3.296570242985
 S    0.566760078146   -0.034658462962   -3.296570242985
 H    1.907343078146   -0.191049462962   -3.296570242985
 K   -0.730645376293   -0.688326533569    4.061381723443
