7

 H   -0.473487274451    2.111418183781   -3.384478782798
 H    1.066071725549    2.202397183781   -2.482231782798
 H    1.066071725549    2.202397183781   -4.286725782798
 C    0.582260725549    1.805877183781   -3.384478782798
 S    0.582260725549   -0.026848816219   -3.384478782798
 H    1.922843725549   -0.183239816219   -3.384478782798
 K   -0.749742207674   -0.697948035376    4.169685236068
