7

 H   -0.465736950749    2.115323007152   -3.428433052704
 H    1.073822049251    2.206302007152   -2.526186052704
 H    1.073822049251    2.206302007152   -4.330680052704
 C    0.590011049251    1.809782007152   -3.428433052704
 S    0.590011049251   -0.022943992848   -3.428433052704
 H    1.930594049251   -0.179334992848   -3.428433052704
 K   -0.759290623365   -0.702758786279    4.223836992381
