7

 H   -0.434735655941    2.130942300638   -3.604250132330
 H    1.104823344059    2.221921300638   -2.702003132330
 H    1.104823344059    2.221921300638   -4.506497132330
 C    0.621012344059    1.825401300638   -3.604250132330
 S    0.621012344059   -0.007324699362   -3.604250132330
 H    1.961595344059   -0.163715699362   -3.604250132330
 K   -0.797484286127   -0.722001789893    4.440444017631
