7

 H   -0.372733066327    2.162180887610   -3.955884291582
 H    1.166825933673    2.253159887610   -3.053637291582
 H    1.166825933673    2.253159887610   -4.858131291582
 C    0.683014933673    1.856639887610   -3.955884291582
 S    0.683014933673    0.023913887610   -3.955884291582
 H    2.023597933673   -0.132477112390   -3.955884291582
 K   -0.873871611652   -0.760487797119    4.873658068132
