7

 H   -0.357232418923    2.169990534353   -4.043792831395
 H    1.182326581077    2.260969534353   -3.141545831395
 H    1.182326581077    2.260969534353   -4.946039831395
 C    0.698515581077    1.864449534353   -4.043792831395
 S    0.698515581077    0.031723534353   -4.043792831395
 H    2.039098581077   -0.124667465647   -4.043792831395
 K   -0.892968443034   -0.770109298925    4.981961580757
