7

 H   -0.341731771519    2.177800181096   -4.131701371208
 H    1.197827228481    2.268779181096   -3.229454371208
 H    1.197827228481    2.268779181096   -5.033948371208
 C    0.714016228481    1.872259181096   -4.131701371208
 S    0.714016228481    0.039533181096   -4.131701371208
 H    2.054599228481   -0.116857818904   -4.131701371208
 K   -0.912065274415   -0.779730800732    5.090265093382
