7

 H   -0.333981447817    2.181705004467   -4.175655641114
 H    1.205577552183    2.272684004467   -3.273408641114
 H    1.205577552183    2.272684004467   -5.077902641114
 C    0.721766552183    1.876164004467   -4.175655641114
 S    0.721766552183    0.043438004467   -4.175655641114
 H    2.062349552183   -0.112952995533   -4.175655641114
 K   -0.921613690106   -0.784541551635    5.144416849695
