7

 H   -0.326231124116    2.185609827839   -4.219609911021
 H    1.213327875884    2.276588827839   -3.317362911021
 H    1.213327875884    2.276588827839   -5.121856911021
 C    0.729516875884    1.880068827839   -4.219609911021
 S    0.729516875884    0.047342827839   -4.219609911021
 H    2.070099875884   -0.109048172161   -4.219609911021
 K   -0.931162105796   -0.789352302539    5.198568606007
