13

 C    0.782574943204    2.068232969917    0.000000000000
 H    0.817094943204    3.169084969917    0.000000000000
 H    1.307157943204    1.699087969917    0.893619000000
 H    1.307157943204    1.699087969917   -0.893619000000
 C   -0.660205056796    1.591181969917    0.000000000000
 H   -1.199379056796    1.962334969917   -0.894766000000
 H   -1.199379056796    1.962334969917    0.894766000000
 O   -0.659640056796    0.162674969917    0.000000000000
 C   -1.989227056796   -0.347732030083    0.000000000000
 H   -2.542610056796   -0.016953030083   -0.899133000000
 H   -2.542610056796   -0.016953030083    0.899133000000
 H   -1.916144056796   -1.443207030083    0.000000000000
CS    0.293205347649   -0.386948205748    0.000000000000
