13

 C    0.722912836107    2.102647447457    0.000000000000
 H    0.757432836107    3.203499447457    0.000000000000
 H    1.247495836107    1.733502447457    0.893619000000
 H    1.247495836107    1.733502447457   -0.893619000000
 C   -0.719867163893    1.625596447457    0.000000000000
 H   -1.259041163893    1.996749447457   -0.894766000000
 H   -1.259041163893    1.996749447457    0.894766000000
 O   -0.719302163893    0.197089447457    0.000000000000
 C   -2.048889163893   -0.313317552543    0.000000000000
 H   -2.602272163893    0.017461447457   -0.899133000000
 H   -2.602272163893    0.017461447457    0.899133000000
 H   -1.975806163893   -1.408792552543    0.000000000000
CS    0.320165550046   -0.402499471451    0.000000000000
