13

 C    0.663250729009    2.137061924996    0.000000000000
 H    0.697770729009    3.237913924996    0.000000000000
 H    1.187833729009    1.767916924996    0.893619000000
 H    1.187833729009    1.767916924996   -0.893619000000
 C   -0.779529270991    1.660010924996    0.000000000000
 H   -1.318703270991    2.031163924996   -0.894766000000
 H   -1.318703270991    2.031163924996    0.894766000000
 O   -0.778964270991    0.231503924996    0.000000000000
 C   -2.108551270991   -0.278903075004    0.000000000000
 H   -2.661934270991    0.051875924996   -0.899133000000
 H   -2.661934270991    0.051875924996    0.899133000000
 H   -2.035468270991   -1.374378075004    0.000000000000
CS    0.347125752444   -0.418050737154    0.000000000000
