13

 C    0.364940193522    2.309134312693    0.000000000000
 H    0.399460193522    3.409986312693    0.000000000000
 H    0.889523193522    1.939989312693    0.893619000000
 H    0.889523193522    1.939989312693   -0.893619000000
 C   -1.077839806478    1.832083312693    0.000000000000
 H   -1.617013806478    2.203236312693   -0.894766000000
 H   -1.617013806478    2.203236312693    0.894766000000
 O   -1.077274806478    0.403576312693    0.000000000000
 C   -2.406861806478   -0.106830687307    0.000000000000
 H   -2.960244806478    0.223948312693   -0.899133000000
 H   -2.960244806478    0.223948312693    0.899133000000
 H   -2.333778806478   -1.202305687307    0.000000000000
CS    0.481926764432   -0.495807065669    0.000000000000
