13

 C    0.185953872230    2.412377745311    0.000000000000
 H    0.220473872230    3.513229745311    0.000000000000
 H    0.710536872230    2.043232745311    0.893619000000
 H    0.710536872230    2.043232745311   -0.893619000000
 C   -1.256826127770    1.935326745311    0.000000000000
 H   -1.796000127770    2.306479745311   -0.894766000000
 H   -1.796000127770    2.306479745311    0.894766000000
 O   -1.256261127770    0.506819745311    0.000000000000
 C   -2.585848127770   -0.003587254689    0.000000000000
 H   -3.139231127770    0.327191745311   -0.899133000000
 H   -3.139231127770    0.327191745311    0.899133000000
 H   -2.512765127770   -1.099062254689    0.000000000000
CS    0.562807371625   -0.542460862778    0.000000000000
