13

 C    0.126291765133    2.446792222850    0.000000000000
 H    0.160811765133    3.547644222850    0.000000000000
 H    0.650874765133    2.077647222850    0.893619000000
 H    0.650874765133    2.077647222850   -0.893619000000
 C   -1.316488234867    1.969741222850    0.000000000000
 H   -1.855662234867    2.340894222850   -0.894766000000
 H   -1.855662234867    2.340894222850    0.894766000000
 O   -1.315923234867    0.541234222850    0.000000000000
 C   -2.645510234867    0.030827222850    0.000000000000
 H   -3.198893234867    0.361606222850   -0.899133000000
 H   -3.198893234867    0.361606222850    0.899133000000
 H   -2.572427234867   -1.064647777150    0.000000000000
CS    0.589767574023   -0.558012128481    0.000000000000
