13

 C   -0.052694556159    2.550035655468    0.000000000000
 H   -0.018174556159    3.650887655468    0.000000000000
 H    0.471888443841    2.180890655468    0.893619000000
 H    0.471888443841    2.180890655468   -0.893619000000
 C   -1.495474556159    2.072984655468    0.000000000000
 H   -2.034648556159    2.444137655468   -0.894766000000
 H   -2.034648556159    2.444137655468    0.894766000000
 O   -1.494909556159    0.644477655468    0.000000000000
 C   -2.824496556159    0.134070655468    0.000000000000
 H   -3.377879556159    0.464849655468   -0.899133000000
 H   -3.377879556159    0.464849655468    0.899133000000
 H   -2.751413556159   -0.961404344532    0.000000000000
CS    0.670648181216   -0.604665925589    0.000000000000
