13

 C   -0.112356663256    2.584450133007    0.000000000000
 H   -0.077836663256    3.685302133007    0.000000000000
 H    0.412226336744    2.215305133007    0.893619000000
 H    0.412226336744    2.215305133007   -0.893619000000
 C   -1.555136663256    2.107399133007    0.000000000000
 H   -2.094310663256    2.478552133007   -0.894766000000
 H   -2.094310663256    2.478552133007    0.894766000000
 O   -1.554571663256    0.678892133007    0.000000000000
 C   -2.884158663256    0.168485133007    0.000000000000
 H   -3.437541663256    0.499264133007   -0.899133000000
 H   -3.437541663256    0.499264133007    0.899133000000
 H   -2.811075663256   -0.926989866993    0.000000000000
CS    0.697608383613   -0.620217191292    0.000000000000
