13

 C   -0.828301948425    2.997423863479    0.000000000000
 H   -0.793781948425    4.098275863479    0.000000000000
 H   -0.303718948425    2.628278863479    0.893619000000
 H   -0.303718948425    2.628278863479   -0.893619000000
 C   -2.271081948425    2.520372863479    0.000000000000
 H   -2.810255948425    2.891525863479   -0.894766000000
 H   -2.810255948425    2.891525863479    0.894766000000
 O   -2.270516948425    1.091865863479    0.000000000000
 C   -3.600103948425    0.581458863479    0.000000000000
 H   -4.153486948425    0.912237863479   -0.899133000000
 H   -4.153486948425    0.912237863479    0.899133000000
 H   -3.527020948425   -0.514016136521    0.000000000000
CS    1.021130812385   -0.806832379728    0.000000000000
