13

 C   -0.887964055522    3.031838341019    0.000000000000
 H   -0.853444055522    4.132690341019    0.000000000000
 H   -0.363381055522    2.662693341019    0.893619000000
 H   -0.363381055522    2.662693341019   -0.893619000000
 C   -2.330744055522    2.554787341019    0.000000000000
 H   -2.869918055522    2.925940341019   -0.894766000000
 H   -2.869918055522    2.925940341019    0.894766000000
 O   -2.330179055522    1.126280341019    0.000000000000
 C   -3.659766055522    0.615873341019    0.000000000000
 H   -4.213149055522    0.946652341019   -0.899133000000
 H   -4.213149055522    0.946652341019    0.899133000000
 H   -3.586683055522   -0.479601658981    0.000000000000
CS    1.048091014782   -0.822383645431    0.000000000000
