13

 C   -0.947626162619    3.066252818558    0.000000000000
 H   -0.913106162619    4.167104818558    0.000000000000
 H   -0.423043162619    2.697107818558    0.893619000000
 H   -0.423043162619    2.697107818558   -0.893619000000
 C   -2.390406162619    2.589201818558    0.000000000000
 H   -2.929580162619    2.960354818558   -0.894766000000
 H   -2.929580162619    2.960354818558    0.894766000000
 O   -2.389841162619    1.160694818558    0.000000000000
 C   -3.719428162619    0.650287818558    0.000000000000
 H   -4.272811162619    0.981066818558   -0.899133000000
 H   -4.272811162619    0.981066818558    0.899133000000
 H   -3.646345162619   -0.445187181442    0.000000000000
CS    1.075051217180   -0.837934911134    0.000000000000
