13

 C   -1.186274591009    3.203910728715    0.000000000000
 H   -1.151754591009    4.304762728715    0.000000000000
 H   -0.661691591009    2.834765728715    0.893619000000
 H   -0.661691591009    2.834765728715   -0.893619000000
 C   -2.629054591009    2.726859728715    0.000000000000
 H   -3.168228591009    3.098012728715   -0.894766000000
 H   -3.168228591009    3.098012728715    0.894766000000
 O   -2.628489591009    1.298352728715    0.000000000000
 C   -3.958076591009    0.787945728715    0.000000000000
 H   -4.511459591009    1.118724728715   -0.899133000000
 H   -4.511459591009    1.118724728715    0.899133000000
 H   -3.884993591009   -0.307529271285    0.000000000000
CS    1.182892026770   -0.900139973946    0.000000000000
