13

 C   -1.305598805204    3.272739683794    0.000000000000
 H   -1.271078805204    4.373591683794    0.000000000000
 H   -0.781015805204    2.903594683794    0.893619000000
 H   -0.781015805204    2.903594683794   -0.893619000000
 C   -2.748378805204    2.795688683794    0.000000000000
 H   -3.287552805204    3.166841683794   -0.894766000000
 H   -3.287552805204    3.166841683794    0.894766000000
 O   -2.747813805204    1.367181683794    0.000000000000
 C   -4.077400805204    0.856774683794    0.000000000000
 H   -4.630783805204    1.187553683794   -0.899133000000
 H   -4.630783805204    1.187553683794    0.899133000000
 H   -4.004317805204   -0.238700316206    0.000000000000
CS    1.236812431566   -0.931242505352    0.000000000000
