13

 C   -1.424923019398    3.341568638873    0.000000000000
 H   -1.390403019398    4.442420638873    0.000000000000
 H   -0.900340019398    2.972423638873    0.893619000000
 H   -0.900340019398    2.972423638873   -0.893619000000
 C   -2.867703019398    2.864517638873    0.000000000000
 H   -3.406877019398    3.235670638873   -0.894766000000
 H   -3.406877019398    3.235670638873    0.894766000000
 O   -2.867138019398    1.436010638873    0.000000000000
 C   -4.196725019398    0.925603638873    0.000000000000
 H   -4.750108019398    1.256382638873   -0.899133000000
 H   -4.750108019398    1.256382638873    0.899133000000
 H   -4.123642019398   -0.169871361127    0.000000000000
CS    1.290732836361   -0.962345036757    0.000000000000
