13

 C   -1.544247233593    3.410397593951    0.000000000000
 H   -1.509727233593    4.511249593951    0.000000000000
 H   -1.019664233593    3.041252593951    0.893619000000
 H   -1.019664233593    3.041252593951   -0.893619000000
 C   -2.987027233593    2.933346593951    0.000000000000
 H   -3.526201233593    3.304499593951   -0.894766000000
 H   -3.526201233593    3.304499593951    0.894766000000
 O   -2.986462233593    1.504839593951    0.000000000000
 C   -4.316049233593    0.994432593951    0.000000000000
 H   -4.869432233593    1.325211593951   -0.899133000000
 H   -4.869432233593    1.325211593951    0.899133000000
 H   -4.242966233593   -0.101042406049    0.000000000000
CS    1.344653241156   -0.993447568163    0.000000000000
