13

 C   -1.902219876177    3.616884459188    0.000000000000
 H   -1.867699876177    4.717736459188    0.000000000000
 H   -1.377636876177    3.247739459188    0.893619000000
 H   -1.377636876177    3.247739459188   -0.893619000000
 C   -3.344999876177    3.139833459188    0.000000000000
 H   -3.884173876177    3.510986459188   -0.894766000000
 H   -3.884173876177    3.510986459188    0.894766000000
 O   -3.344434876177    1.711326459188    0.000000000000
 C   -4.674021876177    1.200919459188    0.000000000000
 H   -5.227404876177    1.531698459188   -0.899133000000
 H   -5.227404876177    1.531698459188    0.899133000000
 H   -4.600938876177    0.105444459188    0.000000000000
CS    1.506414455542   -1.086755162381    0.000000000000
