13

 C   -1.961881983274    3.651298936727    0.000000000000
 H   -1.927361983274    4.752150936727    0.000000000000
 H   -1.437298983274    3.282153936727    0.893619000000
 H   -1.437298983274    3.282153936727   -0.893619000000
 C   -3.404661983274    3.174247936727    0.000000000000
 H   -3.943835983274    3.545400936727   -0.894766000000
 H   -3.943835983274    3.545400936727    0.894766000000
 O   -3.404096983274    1.745740936727    0.000000000000
 C   -4.733683983274    1.235333936727    0.000000000000
 H   -5.287066983274    1.566112936727   -0.899133000000
 H   -5.287066983274    1.566112936727    0.899133000000
 H   -4.660600983274    0.139858936727    0.000000000000
CS    1.533374657940   -1.102306428084    0.000000000000
