13

 C   -2.200530411664    3.788956846884    0.000000000000
 H   -2.166010411664    4.889808846884    0.000000000000
 H   -1.675947411664    3.419811846884    0.893619000000
 H   -1.675947411664    3.419811846884   -0.893619000000
 C   -3.643310411664    3.311905846884    0.000000000000
 H   -4.182484411664    3.683058846884   -0.894766000000
 H   -4.182484411664    3.683058846884    0.894766000000
 O   -3.642745411664    1.883398846884    0.000000000000
 C   -4.972332411664    1.372991846884    0.000000000000
 H   -5.525715411664    1.703770846884   -0.899133000000
 H   -5.525715411664    1.703770846884    0.899133000000
 H   -4.899249411664    0.277516846884    0.000000000000
CS    1.641215467530   -1.164511490896    0.000000000000
