13

 C   -2.260192518761    3.823371324424    0.000000000000
 H   -2.225672518761    4.924223324424    0.000000000000
 H   -1.735609518761    3.454226324424    0.893619000000
 H   -1.735609518761    3.454226324424   -0.893619000000
 C   -3.702972518761    3.346320324424    0.000000000000
 H   -4.242146518761    3.717473324424   -0.894766000000
 H   -4.242146518761    3.717473324424    0.894766000000
 O   -3.702407518761    1.917813324424    0.000000000000
 C   -5.031994518761    1.407406324424    0.000000000000
 H   -5.585377518761    1.738185324424   -0.899133000000
 H   -5.585377518761    1.738185324424    0.899133000000
 H   -4.958911518761    0.311931324424    0.000000000000
CS    1.668175669928   -1.180062756599    0.000000000000
