13

 C   -2.439178840053    3.926614757042    0.000000000000
 H   -2.404658840053    5.027466757042    0.000000000000
 H   -1.914595840053    3.557469757042    0.893619000000
 H   -1.914595840053    3.557469757042   -0.893619000000
 C   -3.881958840053    3.449563757042    0.000000000000
 H   -4.421132840053    3.820716757042   -0.894766000000
 H   -4.421132840053    3.820716757042    0.894766000000
 O   -3.881393840053    2.021056757042    0.000000000000
 C   -5.210980840053    1.510649757042    0.000000000000
 H   -5.764363840053    1.841428757042   -0.899133000000
 H   -5.764363840053    1.841428757042    0.899133000000
 H   -5.137897840053    0.415174757042    0.000000000000
CS    1.749056277121   -1.226716553708    0.000000000000
