13

 C   -2.677827268443    4.064272667199    0.000000000000
 H   -2.643307268443    5.165124667199    0.000000000000
 H   -2.153244268443    3.695127667199    0.893619000000
 H   -2.153244268443    3.695127667199   -0.893619000000
 C   -4.120607268443    3.587221667199    0.000000000000
 H   -4.659781268443    3.958374667199   -0.894766000000
 H   -4.659781268443    3.958374667199    0.894766000000
 O   -4.120042268443    2.158714667199    0.000000000000
 C   -5.449629268443    1.648307667199    0.000000000000
 H   -6.003012268443    1.979086667199   -0.899133000000
 H   -6.003012268443    1.979086667199    0.899133000000
 H   -5.376546268443    0.552832667199    0.000000000000
CS    1.856897086711   -1.288921616520    0.000000000000
