13

 C   -2.737489375540    4.098687144738    0.000000000000
 H   -2.702969375540    5.199539144738    0.000000000000
 H   -2.212906375540    3.729542144738    0.893619000000
 H   -2.212906375540    3.729542144738   -0.893619000000
 C   -4.180269375540    3.621636144738    0.000000000000
 H   -4.719443375540    3.992789144738   -0.894766000000
 H   -4.719443375540    3.992789144738    0.894766000000
 O   -4.179704375540    2.193129144738    0.000000000000
 C   -5.509291375540    1.682722144738    0.000000000000
 H   -6.062674375540    2.013501144738   -0.899133000000
 H   -6.062674375540    2.013501144738    0.899133000000
 H   -5.436208375540    0.587247144738    0.000000000000
CS    1.883857289109   -1.304472882223    0.000000000000
