13

 C   -3.095462018124    4.305174009974    0.000000000000
 H   -3.060942018124    5.406026009974    0.000000000000
 H   -2.570879018124    3.936029009974    0.893619000000
 H   -2.570879018124    3.936029009974   -0.893619000000
 C   -4.538242018124    3.828123009974    0.000000000000
 H   -5.077416018124    4.199276009974   -0.894766000000
 H   -5.077416018124    4.199276009974    0.894766000000
 O   -4.537677018124    2.399616009974    0.000000000000
 C   -5.867264018124    1.889209009974    0.000000000000
 H   -6.420647018124    2.219988009974   -0.899133000000
 H   -6.420647018124    2.219988009974    0.899133000000
 H   -5.794181018124    0.793734009974    0.000000000000
CS    2.045618503495   -1.397780476440    0.000000000000
