13

 C   -3.155124125222    4.339588487514    0.000000000000
 H   -3.120604125222    5.440440487514    0.000000000000
 H   -2.630541125222    3.970443487514    0.893619000000
 H   -2.630541125222    3.970443487514   -0.893619000000
 C   -4.597904125222    3.862537487514    0.000000000000
 H   -5.137078125222    4.233690487514   -0.894766000000
 H   -5.137078125222    4.233690487514    0.894766000000
 O   -4.597339125222    2.434030487514    0.000000000000
 C   -5.926926125222    1.923623487514    0.000000000000
 H   -6.480309125222    2.254402487514   -0.899133000000
 H   -6.480309125222    2.254402487514    0.899133000000
 H   -5.853843125222    0.828148487514    0.000000000000
CS    2.072578705892   -1.413331742143    0.000000000000
