13

 C   -3.214786232319    4.374002965053    0.000000000000
 H   -3.180266232319    5.474854965053    0.000000000000
 H   -2.690203232319    4.004857965053    0.893619000000
 H   -2.690203232319    4.004857965053   -0.893619000000
 C   -4.657566232319    3.896951965053    0.000000000000
 H   -5.196740232319    4.268104965053   -0.894766000000
 H   -5.196740232319    4.268104965053    0.894766000000
 O   -4.657001232319    2.468444965053    0.000000000000
 C   -5.986588232319    1.958037965053    0.000000000000
 H   -6.539971232319    2.288816965053   -0.899133000000
 H   -6.539971232319    2.288816965053    0.899133000000
 H   -5.913505232319    0.862562965053    0.000000000000
CS    2.099538908290   -1.428883007846    0.000000000000
