13

 C   -3.334110446514    4.442831920132    0.000000000000
 H   -3.299590446514    5.543683920132    0.000000000000
 H   -2.809527446514    4.073686920132    0.893619000000
 H   -2.809527446514    4.073686920132   -0.893619000000
 C   -4.776890446514    3.965780920132    0.000000000000
 H   -5.316064446514    4.336933920132   -0.894766000000
 H   -5.316064446514    4.336933920132    0.894766000000
 O   -4.776325446514    2.537273920132    0.000000000000
 C   -6.105912446514    2.026866920132    0.000000000000
 H   -6.659295446514    2.357645920132   -0.899133000000
 H   -6.659295446514    2.357645920132    0.899133000000
 H   -6.032829446514    0.931391920132    0.000000000000
CS    2.153459313085   -1.459985539252    0.000000000000
