13

 C   -3.393772553611    4.477246397671    0.000000000000
 H   -3.359252553611    5.578098397671    0.000000000000
 H   -2.869189553611    4.108101397671    0.893619000000
 H   -2.869189553611    4.108101397671   -0.893619000000
 C   -4.836552553611    4.000195397671    0.000000000000
 H   -5.375726553611    4.371348397671   -0.894766000000
 H   -5.375726553611    4.371348397671    0.894766000000
 O   -4.835987553611    2.571688397671    0.000000000000
 C   -6.165574553611    2.061281397671    0.000000000000
 H   -6.718957553611    2.392060397671   -0.899133000000
 H   -6.718957553611    2.392060397671    0.899133000000
 H   -6.092491553611    0.965806397671    0.000000000000
CS    2.180419515483   -1.475536804955    0.000000000000
