13

 C   -3.572758874903    4.580489830289    0.000000000000
 H   -3.538238874903    5.681341830289    0.000000000000
 H   -3.048175874903    4.211344830289    0.893619000000
 H   -3.048175874903    4.211344830289   -0.893619000000
 C   -5.015538874903    4.103438830289    0.000000000000
 H   -5.554712874903    4.474591830289   -0.894766000000
 H   -5.554712874903    4.474591830289    0.894766000000
 O   -5.014973874903    2.674931830289    0.000000000000
 C   -6.344560874903    2.164524830289    0.000000000000
 H   -6.897943874903    2.495303830289   -0.899133000000
 H   -6.897943874903    2.495303830289    0.899133000000
 H   -6.271477874903    1.069049830289    0.000000000000
CS    2.261300122676   -1.522190602064    0.000000000000
