13

 C   -3.930731517487    4.786976695525    0.000000000000
 H   -3.896211517487    5.887828695525    0.000000000000
 H   -3.406148517487    4.417831695525    0.893619000000
 H   -3.406148517487    4.417831695525   -0.893619000000
 C   -5.373511517487    4.309925695525    0.000000000000
 H   -5.912685517487    4.681078695525   -0.894766000000
 H   -5.912685517487    4.681078695525    0.894766000000
 O   -5.372946517487    2.881418695525    0.000000000000
 C   -6.702533517487    2.371011695525    0.000000000000
 H   -7.255916517487    2.701790695525   -0.899133000000
 H   -7.255916517487    2.701790695525    0.899133000000
 H   -6.629450517487    1.275536695525    0.000000000000
CS    2.423061337061   -1.615498196282    0.000000000000
