13

 C   -3.990393624584    4.821391173064    0.000000000000
 H   -3.955873624584    5.922243173064    0.000000000000
 H   -3.465810624584    4.452246173064    0.893619000000
 H   -3.465810624584    4.452246173064   -0.893619000000
 C   -5.433173624584    4.344340173064    0.000000000000
 H   -5.972347624584    4.715493173064   -0.894766000000
 H   -5.972347624584    4.715493173064    0.894766000000
 O   -5.432608624584    2.915833173064    0.000000000000
 C   -6.762195624584    2.405426173064    0.000000000000
 H   -7.315578624584    2.736205173064   -0.899133000000
 H   -7.315578624584    2.736205173064    0.899133000000
 H   -6.689112624584    1.309951173064    0.000000000000
CS    2.450021539459   -1.631049461985    0.000000000000
