13

 C   -4.050055731682    4.855805650604    0.000000000000
 H   -4.015535731682    5.956657650604    0.000000000000
 H   -3.525472731682    4.486660650604    0.893619000000
 H   -3.525472731682    4.486660650604   -0.893619000000
 C   -5.492835731682    4.378754650604    0.000000000000
 H   -6.032009731682    4.749907650604   -0.894766000000
 H   -6.032009731682    4.749907650604    0.894766000000
 O   -5.492270731682    2.950247650604    0.000000000000
 C   -6.821857731682    2.439840650604    0.000000000000
 H   -7.375240731682    2.770619650604   -0.899133000000
 H   -7.375240731682    2.770619650604    0.899133000000
 H   -6.748774731682    1.344365650604    0.000000000000
CS    2.476981741857   -1.646600727688    0.000000000000
