13

 C   -4.169379945877    4.924634605682    0.000000000000
 H   -4.134859945877    6.025486605682    0.000000000000
 H   -3.644796945877    4.555489605682    0.893619000000
 H   -3.644796945877    4.555489605682   -0.893619000000
 C   -5.612159945877    4.447583605682    0.000000000000
 H   -6.151333945877    4.818736605682   -0.894766000000
 H   -6.151333945877    4.818736605682    0.894766000000
 O   -5.611594945877    3.019076605682    0.000000000000
 C   -6.941181945877    2.508669605682    0.000000000000
 H   -7.494564945877    2.839448605682   -0.899133000000
 H   -7.494564945877    2.839448605682    0.899133000000
 H   -6.868098945877    1.413194605682    0.000000000000
CS    2.530902146652   -1.677703259094    0.000000000000
