13

 C   -4.229042052974    4.959049083222    0.000000000000
 H   -4.194522052974    6.059901083222    0.000000000000
 H   -3.704459052974    4.589904083222    0.893619000000
 H   -3.704459052974    4.589904083222   -0.893619000000
 C   -5.671822052974    4.481998083222    0.000000000000
 H   -6.210996052974    4.853151083222   -0.894766000000
 H   -6.210996052974    4.853151083222    0.894766000000
 O   -5.671257052974    3.053491083222    0.000000000000
 C   -7.000844052974    2.543084083222    0.000000000000
 H   -7.554227052974    2.873863083222   -0.899133000000
 H   -7.554227052974    2.873863083222    0.899133000000
 H   -6.927761052974    1.447609083222    0.000000000000
CS    2.557862349050   -1.693254524796    0.000000000000
