13

 C   -4.288704160071    4.993463560761    0.000000000000
 H   -4.254184160071    6.094315560761    0.000000000000
 H   -3.764121160071    4.624318560761    0.893619000000
 H   -3.764121160071    4.624318560761   -0.893619000000
 C   -5.731484160071    4.516412560761    0.000000000000
 H   -6.270658160071    4.887565560761   -0.894766000000
 H   -6.270658160071    4.887565560761    0.894766000000
 O   -5.730919160071    3.087905560761    0.000000000000
 C   -7.060506160071    2.577498560761    0.000000000000
 H   -7.613889160071    2.908277560761   -0.899133000000
 H   -7.613889160071    2.908277560761    0.899133000000
 H   -6.987423160071    1.482023560761    0.000000000000
CS    2.584822551447   -1.708805790499    0.000000000000
