17

 N   -1.780435672475   -2.975607412458   -0.002603744826
 C   -0.570247605631   -2.320401208782    0.001357879142
 N    0.663164808672   -2.919078903244    0.013396164047
 C    1.633588008728   -2.028902761633    0.001523707074
 N    1.430511171315   -0.667264628119   -0.005311453268
 H    2.234338296566   -0.047304088364   -0.087299475690
 N    2.959042762965   -2.447577483313   -0.076823596161
 H    3.613578968297   -1.915774258913    0.490817180569
 H    3.037847850356   -3.448277627248    0.084759741828
 C    0.171237428998    0.018769075412    0.007642333409
 O    0.143657059893    1.246942160189    0.003554204981
 C   -0.901547696978   -0.954924313862    0.013843531349
 N   -2.272620998747   -0.768593268549    0.013768346633
 C   -2.766144493258   -2.007196282594    0.003438246968
 H   -3.823642406526   -2.261342904426    0.000491602542
 H   -1.905532669006   -3.982190497690   -0.011263295857
RB    0.114471235289    2.546607298796   -0.000771893731
