17

 N   -1.778819878401   -3.047559850267   -0.002364242096
 C   -0.568631811557   -2.392353646591    0.001597381872
 N    0.664780602746   -2.991031341053    0.013635666777
 C    1.635203802802   -2.100855199442    0.001763209804
 N    1.432126965389   -0.739217065928   -0.005071950538
 H    2.235954090640   -0.119256526173   -0.087059972960
 N    2.960658557039   -2.519529921122   -0.076584093431
 H    3.615194762371   -1.987726696722    0.491056683299
 H    3.039463644430   -3.520230065057    0.084999244558
 C    0.172853223072   -0.053183362397    0.007881836139
 O    0.145272853967    1.174989722380    0.003793707711
 C   -0.899931902904   -1.026876751671    0.014083034079
 N   -2.271005204673   -0.840545706358    0.014007849363
 C   -2.764528699184   -2.079148720403    0.003677749698
 H   -3.822026612452   -2.333295342235    0.000731105272
 H   -1.903916874932   -4.054142935499   -0.011023793127
RB    0.111596902501    2.674603343850   -0.001197944649
