17

 N   -1.778011981363   -3.083536069171   -0.002244490731
 C   -0.567823914519   -2.428329865495    0.001717133237
 N    0.665588499784   -3.027007559957    0.013755418142
 C    1.636011699840   -2.136831418346    0.001882961169
 N    1.432934862427   -0.775193284832   -0.004952199173
 H    2.236761987678   -0.155232745077   -0.086940221595
 N    2.961466454077   -2.555506140026   -0.076464342066
 H    3.616002659409   -2.023702915626    0.491176434664
 H    3.040271541468   -3.556206283961    0.085118995923
 C    0.173661120110   -0.089159581301    0.008001587504
 O    0.146080751005    1.139013503476    0.003913459076
 C   -0.899124005866   -1.062852970575    0.014202785444
 N   -2.270197307635   -0.876521925262    0.014127600728
 C   -2.763720802146   -2.115124939307    0.003797501063
 H   -3.821218715414   -2.369271561139    0.000850856637
 H   -1.903108977894   -4.090119154403   -0.010904041762
RB    0.110159736107    2.738601366377   -0.001410970108
