17

 N   -1.776396187289   -3.155488506980   -0.002004988001
 C   -0.566208120445   -2.500282303304    0.001956635967
 N    0.667204293858   -3.098959997766    0.013994920872
 C    1.637627493914   -2.208783856155    0.002122463899
 N    1.434550656501   -0.847145722641   -0.004712696443
 H    2.238377781752   -0.227185182886   -0.086700718865
 N    2.963082248151   -2.627458577835   -0.076224839336
 H    3.617618453483   -2.095655353435    0.491415937394
 H    3.041887335542   -3.628158721770    0.085358498653
 C    0.175276914184   -0.161112019110    0.008241090234
 O    0.147696545079    1.067061065667    0.004152961806
 C   -0.897508211792   -1.134805408384    0.014442288174
 N   -2.268581513561   -0.948474363071    0.014367103458
 C   -2.762105008072   -2.187077377116    0.004037003793
 H   -3.819602921340   -2.441223998948    0.001090359367
 H   -1.901493183820   -4.162071592212   -0.010664539032
RB    0.107285403320    2.866597411431   -0.001837021026
