17

 N   -1.775588290252   -3.191464725885   -0.001885236637
 C   -0.565400223408   -2.536258522209    0.002076387331
 N    0.668012190895   -3.134936216671    0.014114672236
 C    1.638435390951   -2.244760075060    0.002242215263
 N    1.435358553538   -0.883121941546   -0.004592945079
 H    2.239185678789   -0.263161401791   -0.086580967501
 N    2.963890145188   -2.663434796740   -0.076105087972
 H    3.618426350520   -2.131631572340    0.491535688758
 H    3.042695232579   -3.664134940675    0.085478250017
 C    0.176084811221   -0.197088238015    0.008360841598
 O    0.148504442116    1.031084846762    0.004272713170
 C   -0.896700314755   -1.170781627289    0.014562039538
 N   -2.267773616524   -0.984450581976    0.014486854822
 C   -2.761297111035   -2.223053596021    0.004156755157
 H   -3.818795024303   -2.477200217853    0.001210110731
 H   -1.900685286783   -4.198047811117   -0.010544787668
RB    0.105848236926    2.930595433958   -0.002050046485
