17

 N   -1.710148630237   -6.105538457142    0.007814623920
 C   -0.499960563393   -5.450332253466    0.011776247888
 N    0.733451850910   -6.049009947928    0.023814532793
 C    1.703875050966   -5.158833806317    0.011942075820
 N    1.500798213553   -3.797195672803    0.005106915478
 H    2.304625338804   -3.177235133048   -0.076881106944
 N    3.029329805203   -5.577508527997   -0.066405227415
 H    3.683866010535   -5.045705303597    0.501235549315
 H    3.108134892594   -6.578208671932    0.095178110574
 C    0.241524471236   -3.111161969272    0.018060702155
 O    0.213944102131   -1.882988884495    0.013972573727
 C   -0.831260654740   -4.084855358546    0.024261900095
 N   -2.202333956509   -3.898524313233    0.024186715379
 C   -2.695857451020   -5.137127327278    0.013856615714
 H   -3.753355364288   -5.391273949110    0.010909971288
 H   -1.835245626768   -7.112121542374   -0.000844927111
RB   -0.010562240977    8.114435258641   -0.019305108672
