17

 N   -1.774780393215   -3.227440944789   -0.001765485272
 C   -0.564592326371   -2.572234741113    0.002196138696
 N    0.668820087932   -3.170912435575    0.014234423601
 C    1.639243287988   -2.280736293964    0.002361966628
 N    1.436166450575   -0.919098160450   -0.004473193714
 H    2.239993575826   -0.299137620695   -0.086461216136
 N    2.964698042225   -2.699411015644   -0.075985336607
 H    3.619234247557   -2.167607791244    0.491655440123
 H    3.043503129616   -3.700111159579    0.085598001382
 C    0.176892708258   -0.233064456919    0.008480592963
 O    0.149312339153    0.995108627858    0.004392464535
 C   -0.895892417718   -1.206757846193    0.014681790903
 N   -2.266965719487   -1.020426800880    0.014606606187
 C   -2.760489213998   -2.259029814925    0.004276506522
 H   -3.817987127266   -2.513176436757    0.001329862096
 H   -1.899877389746   -4.234024030021   -0.010425036303
RB    0.104411070532    2.994593456485   -0.002263071944
