17

 N   -1.770740908028   -3.407322039311   -0.001166728447
 C   -0.560552841184   -2.752115835635    0.002794895521
 N    0.672859573119   -3.350793530097    0.014833180426
 C    1.643282773175   -2.460617388486    0.002960723453
 N    1.440205935762   -1.098979254972   -0.003874436889
 H    2.244033061013   -0.479018715217   -0.085862459311
 N    2.968737527412   -2.879292110166   -0.075386579782
 H    3.623273732744   -2.347488885766    0.492254196948
 H    3.047542614803   -3.879992254101    0.086196758207
 C    0.180932193445   -0.412945551441    0.009079349788
 O    0.153351824340    0.815227533336    0.004991221360
 C   -0.891852932531   -1.386638940715    0.015280547728
 N   -2.262926234300   -1.200307895402    0.015205363012
 C   -2.756449728811   -2.438910909447    0.004875263347
 H   -3.813947642079   -2.693057531279    0.001928618921
 H   -1.895837904559   -4.413905124543   -0.009826279478
RB    0.097225238563    3.314583569120   -0.003328199240
