17

 N   -1.769933010991   -3.443298258216   -0.001046977082
 C   -0.559744944147   -2.788092054540    0.002914646886
 N    0.673667470156   -3.386769749002    0.014952931791
 C    1.644090670212   -2.496593607391    0.003080474818
 N    1.441013832799   -1.134955473877   -0.003754685524
 H    2.244840958050   -0.514994934122   -0.085742707946
 N    2.969545424449   -2.915268329071   -0.075266828417
 H    3.624081629781   -2.383465104671    0.492373948313
 H    3.048350511840   -3.915968473006    0.086316509572
 C    0.181740090482   -0.448921770346    0.009199101153
 O    0.154159721377    0.779251314431    0.005110972725
 C   -0.891045035494   -1.422615159620    0.015400299093
 N   -2.262118337263   -1.236284114307    0.015325114377
 C   -2.755641831774   -2.474887128352    0.004995014712
 H   -3.813139745042   -2.729033750184    0.002048370286
 H   -1.895030007522   -4.449881343448   -0.009706528113
RB    0.095788072169    3.378581591647   -0.003541224699
