17

 N   -1.765893525805   -3.623179352738   -0.000448220258
 C   -0.555705458961   -2.967973149062    0.003513403710
 N    0.677706955342   -3.566650843524    0.015551688615
 C    1.648130155398   -2.676474701913    0.003679231642
 N    1.445053317985   -1.314836568399   -0.003155928700
 H    2.248880443236   -0.694876028644   -0.085143951122
 N    2.973584909635   -3.095149423593   -0.074668071593
 H    3.628121114967   -2.563346199193    0.492972705137
 H    3.052389997026   -4.095849567528    0.086915266396
 C    0.185779575668   -0.628802864868    0.009797857977
 O    0.158199206563    0.599370219909    0.005709729549
 C   -0.887005550308   -1.602496254142    0.015999055917
 N   -2.258078852077   -1.416165208829    0.015923871201
 C   -2.751602346588   -2.654768222874    0.005593771536
 H   -3.809100259856   -2.908914844706    0.002647127110
 H   -1.890990522336   -4.629762437970   -0.009107771289
RB    0.088602240199    3.698571704282   -0.004606351994
