17

 N   -1.762661937656   -3.767084228355    0.000030785202
 C   -0.552473870812   -3.111878024679    0.003992409170
 N    0.680938543491   -3.710555719141    0.016030694075
 C    1.651361743547   -2.820379577530    0.004158237102
 N    1.448284906134   -1.458741444016   -0.002676923240
 H    2.252112031385   -0.838780904261   -0.084664945662
 N    2.976816497784   -3.239054299210   -0.074189066133
 H    3.631352703116   -2.707251074810    0.493451710597
 H    3.055621585175   -4.239754443145    0.087394271856
 C    0.189011163817   -0.772707740485    0.010276863437
 O    0.161430794712    0.455465344292    0.006188735009
 C   -0.883773962159   -1.746401129759    0.016478061377
 N   -2.254847263928   -1.560070084446    0.016402876661
 C   -2.748370758439   -2.798673098491    0.006072776996
 H   -3.805868671707   -3.052819720323    0.003126132570
 H   -1.887758934187   -4.773667313587   -0.008628765829
RB    0.082853574624    3.954563794389   -0.005458453831
