17

 N   -1.761854040619   -3.803060447260    0.000150536567
 C   -0.551665973775   -3.147854243584    0.004112160535
 N    0.681746440528   -3.746531938046    0.016150445440
 C    1.652169640584   -2.856355796435    0.004277988467
 N    1.449092803171   -1.494717662921   -0.002557171875
 H    2.252919928422   -0.874757123166   -0.084545194297
 N    2.977624394821   -3.275030518115   -0.074069314768
 H    3.632160600153   -2.743227293715    0.493571461962
 H    3.056429482212   -4.275730662050    0.087514023221
 C    0.189819060854   -0.808683959390    0.010396614802
 O    0.162238691749    0.419489125387    0.006308486374
 C   -0.882966065122   -1.782377348664    0.016597812742
 N   -2.254039366891   -1.596046303351    0.016522628026
 C   -2.747562861402   -2.834649317396    0.006192528361
 H   -3.805060774670   -3.088795939228    0.003245883935
 H   -1.886951037150   -4.809643532492   -0.008509014464
RB    0.081416408230    4.018561816916   -0.005671479290
