17

 N   -1.759430349507   -3.910989103973    0.000509790661
 C   -0.549242282663   -3.255782900297    0.004471414629
 N    0.684170131640   -3.854460594759    0.016509699534
 C    1.654593331696   -2.964284453148    0.004637242561
 N    1.451516494283   -1.602646319634   -0.002197917781
 H    2.255343619534   -0.982685779879   -0.084185940203
 N    2.980048085933   -3.382959174828   -0.073710060674
 H    3.634584291265   -2.851155950428    0.493930716056
 H    3.058853173324   -4.383659318763    0.087873277315
 C    0.192242751966   -0.916612616103    0.010755868896
 O    0.164662382861    0.311560468674    0.006667740468
 C   -0.880542374010   -1.890306005377    0.016957066836
 N   -2.251615675779   -1.703974960064    0.016881882120
 C   -2.745139170290   -2.942577974109    0.006551782455
 H   -3.802637083558   -3.196724595941    0.003605138029
 H   -1.884527346038   -4.917572189205   -0.008149760370
RB    0.077104909049    4.210555884497   -0.006310555667
