17

 N   -1.756198761359   -4.054893979591    0.000988796121
 C   -0.546010694515   -3.399687775915    0.004950420089
 N    0.687401719788   -3.998365470377    0.016988704994
 C    1.657824919844   -3.108189328766    0.005116248021
 N    1.454748082431   -1.746551195252   -0.001718912321
 H    2.258575207682   -1.126590655497   -0.083706934743
 N    2.983279674081   -3.526864050446   -0.073231055214
 H    3.637815879413   -2.995060826046    0.494409721516
 H    3.062084761472   -4.527564194381    0.088352282775
 C    0.195474340114   -1.060517491721    0.011234874356
 O    0.167893971009    0.167655593056    0.007146745928
 C   -0.877310785862   -2.034210880995    0.017436072296
 N   -2.248384087631   -1.847879835682    0.017360887580
 C   -2.741907582142   -3.086482849727    0.007030787915
 H   -3.799405495410   -3.340629471559    0.004084143489
 H   -1.881295757890   -5.061477064823   -0.007670754910
RB    0.071356243473    4.466547974605   -0.007162657504
