17

 N   -1.755390864321   -4.090870198495    0.001108547486
 C   -0.545202797477   -3.435663994819    0.005070171454
 N    0.688209616826   -4.034341689281    0.017108456359
 C    1.658632816882   -3.144165547670    0.005235999386
 N    1.455555979469   -1.782527414156   -0.001599160956
 H    2.259383104720   -1.162566874401   -0.083587183378
 N    2.984087571119   -3.562840269350   -0.073111303849
 H    3.638623776451   -3.031037044950    0.494529472881
 H    3.062892658510   -4.563540413285    0.088472034140
 C    0.196282237152   -1.096493710625    0.011354625721
 O    0.168701868047    0.131679374152    0.007266497293
 C   -0.876502888824   -2.070187099899    0.017555823661
 N   -2.247576190593   -1.883856054586    0.017480638945
 C   -2.741099685104   -3.122459068631    0.007150539280
 H   -3.798597598372   -3.376605690463    0.004203894854
 H   -1.880487860852   -5.097453283727   -0.007551003545
RB    0.069919077079    4.530545997132   -0.007375682963
