17

 N   -1.753775070247   -4.162822636304    0.001348050216
 C   -0.543587003403   -3.507616432628    0.005309674184
 N    0.689825410900   -4.106294127090    0.017347959089
 C    1.660248610956   -3.216117985479    0.005475502116
 N    1.457171773543   -1.854479851965   -0.001359658226
 H    2.260998898794   -1.234519312210   -0.083347680648
 N    2.985703365193   -3.634792707159   -0.072871801119
 H    3.640239570525   -3.102989482759    0.494768975611
 H    3.064508452584   -4.635492851094    0.088711536870
 C    0.197898031226   -1.168446148434    0.011594128451
 O    0.170317662121    0.059726936343    0.007506000023
 C   -0.874887094750   -2.142139537708    0.017795326391
 N   -2.245960396519   -1.955808492395    0.017720141675
 C   -2.739483891030   -3.194411506440    0.007390042010
 H   -3.796981804298   -3.448558128272    0.004443397584
 H   -1.878872066778   -5.169405721536   -0.007311500815
RB    0.067044744291    4.658542042186   -0.007801733881
