17

 N   -1.752967173210   -4.198798855208    0.001467801581
 C   -0.542779106366   -3.543592651532    0.005429425549
 N    0.690633307937   -4.142270345994    0.017467710454
 C    1.661056507993   -3.252094204383    0.005595253481
 N    1.457979670580   -1.890456070869   -0.001239906861
 H    2.261806795831   -1.270495531114   -0.083227929283
 N    2.986511262230   -3.670768926063   -0.072752049754
 H    3.641047467562   -3.138965701663    0.494888726976
 H    3.065316349621   -4.671469069998    0.088831288235
 C    0.198705928263   -1.204422367338    0.011713879816
 O    0.171125559158    0.023750717439    0.007625751388
 C   -0.874079197713   -2.178115756612    0.017915077756
 N   -2.245152499482   -1.991784711299    0.017839893040
 C   -2.738675993993   -3.230387725344    0.007509793375
 H   -3.796173907261   -3.484534347176    0.004563148949
 H   -1.878064169741   -5.205381940440   -0.007191749450
RB    0.065607577898    4.722540064713   -0.008014759340
