17

 N   -1.751351379135   -4.270751293017    0.001707304310
 C   -0.541163312291   -3.615545089341    0.005668928278
 N    0.692249102012   -4.214222783803    0.017707213183
 C    1.662672302068   -3.324046642192    0.005834756210
 N    1.459595464655   -1.962408508678   -0.001000404132
 H    2.263422589906   -1.342447968923   -0.082988426554
 N    2.988127056305   -3.742721363872   -0.072512547025
 H    3.642663261637   -3.210918139472    0.495128229705
 H    3.066932143696   -4.743421507807    0.089070790964
 C    0.200321722338   -1.276374805147    0.011953382545
 O    0.172741353233   -0.048201720370    0.007865254117
 C   -0.872463403638   -2.250068194421    0.018154580485
 N   -2.243536705407   -2.063737149108    0.018079395769
 C   -2.737060199918   -3.302340163153    0.007749296104
 H   -3.794558113186   -3.556486784985    0.004802651678
 H   -1.876448375666   -5.277334378249   -0.006952246721
RB    0.062733245110    4.850536109767   -0.008440810258
