17

 N   -1.748927688024   -4.378679949730    0.002066558405
 C   -0.538739621180   -3.723473746054    0.006028182373
 N    0.694672793123   -4.322151440516    0.018066467278
 C    1.665095993179   -3.431975298905    0.006194010305
 N    1.462019155766   -2.070337165391   -0.000641150037
 H    2.265846281017   -1.450376625636   -0.082629172459
 N    2.990550747416   -3.850650020585   -0.072153292930
 H    3.645086952748   -3.318846796185    0.495487483800
 H    3.069355834807   -4.851350164520    0.089430045059
 C    0.202745413449   -1.384303461860    0.012312636640
 O    0.175165044344   -0.156130377083    0.008224508212
 C   -0.870039712527   -2.357996851134    0.018513834580
 N   -2.241113014296   -2.171665805821    0.018438649864
 C   -2.734636508807   -3.410268819866    0.008108550199
 H   -3.792134422075   -3.664415441698    0.005161905773
 H   -1.874024684555   -5.385263034962   -0.006592992626
RB    0.058421745928    5.042530177348   -0.009079886635
