17

 N   -1.747311893949   -4.450632387539    0.002306061135
 C   -0.537123827105   -3.795426183863    0.006267685103
 N    0.696288587198   -4.394103878325    0.018305970008
 C    1.666711787254   -3.503927736714    0.006433513035
 N    1.463634949841   -2.142289603200   -0.000401647307
 H    2.267462075092   -1.522329063445   -0.082389669729
 N    2.992166541491   -3.922602458394   -0.071913790200
 H    3.646702746823   -3.390799233994    0.495726986530
 H    3.070971628882   -4.923302602329    0.089669547789
 C    0.204361207524   -1.456255899669    0.012552139370
 O    0.176780838419   -0.228082814892    0.008464010942
 C   -0.868423918452   -2.429949288943    0.018753337310
 N   -2.239497220221   -2.243618243630    0.018678152594
 C   -2.733020714732   -3.482221257675    0.008348052929
 H   -3.790518628000   -3.736367879507    0.005401408503
 H   -1.872408890480   -5.457215472771   -0.006353489896
RB    0.055547413141    5.170526222401   -0.009505937554
