17

 N   -1.745696099875   -4.522584825348    0.002545563865
 C   -0.535508033031   -3.867378621672    0.006507187833
 N    0.697904381272   -4.466056316134    0.018545472738
 C    1.668327581328   -3.575880174523    0.006673015765
 N    1.465250743915   -2.214242041009   -0.000162144577
 H    2.269077869166   -1.594281501254   -0.082150166999
 N    2.993782335565   -3.994554896203   -0.071674287470
 H    3.648318540897   -3.462751671803    0.495966489260
 H    3.072587422956   -4.995255040138    0.089909050519
 C    0.205977001598   -1.528208337478    0.012791642100
 O    0.178396632493   -0.300035252701    0.008703513672
 C   -0.866808124378   -2.501901726752    0.018992840040
 N   -2.237881426147   -2.315570681439    0.018917655324
 C   -2.731404920658   -3.554173695484    0.008587555659
 H   -3.788902833926   -3.808320317316    0.005640911233
 H   -1.870793096406   -5.529167910580   -0.006113987166
RB    0.052673080353    5.298522267455   -0.009931988472
