17

 N   -1.744888202837   -4.558561044252    0.002665315230
 C   -0.534700135993   -3.903354840576    0.006626939198
 N    0.698712278310   -4.502032535038    0.018665224103
 C    1.669135478366   -3.611856393427    0.006792767130
 N    1.466058640953   -2.250218259913   -0.000042393212
 H    2.269885766204   -1.630257720158   -0.082030415634
 N    2.994590232603   -4.030531115107   -0.071554536105
 H    3.649126437935   -3.498727890707    0.496086240625
 H    3.073395319994   -5.031231259042    0.090028801884
 C    0.206784898636   -1.564184556382    0.012911393465
 O    0.179204529531   -0.336011471605    0.008823265037
 C   -0.866000227340   -2.537877945656    0.019112591405
 N   -2.237073529109   -2.351546900343    0.019037406689
 C   -2.730597023620   -3.590149914388    0.008707307024
 H   -3.788094936888   -3.844296536220    0.005760662598
 H   -1.869985199368   -5.565144129484   -0.005994235801
RB    0.051235913959    5.362520289982   -0.010145013931
