17

 N   -1.742464511726   -4.666489700965    0.003024569324
 C   -0.532276444882   -4.011283497289    0.006986193292
 N    0.701135969421   -4.609961191751    0.019024478197
 C    1.671559169477   -3.719785050140    0.007152021224
 N    1.468482332064   -2.358146916626    0.000316860882
 H    2.272309457315   -1.738186376871   -0.081671161540
 N    2.997013923714   -4.138459771820   -0.071195282011
 H    3.651550129046   -3.606656547420    0.496445494719
 H    3.075819011105   -5.139159915755    0.090388055978
 C    0.209208589747   -1.672113213095    0.013270647559
 O    0.181628220642   -0.443940128318    0.009182519131
 C   -0.863576536229   -2.645806602369    0.019471845499
 N   -2.234649837998   -2.459475557056    0.019396660783
 C   -2.728173332509   -3.698078571101    0.009066561118
 H   -3.785671245777   -3.952225192933    0.006119916692
 H   -1.867561508257   -5.673072786197   -0.005634981707
RB    0.046924414777    5.554514357563   -0.010784090308
