17

 N   -1.740040820614   -4.774418357679    0.003383823419
 C   -0.529852753770   -4.119212154003    0.007345447387
 N    0.703559660533   -4.717889848465    0.019383732292
 C    1.673982860589   -3.827713706854    0.007511275319
 N    1.470906023176   -2.466075573340    0.000676114977
 H    2.274733148427   -1.846115033585   -0.081311907445
 N    2.999437614826   -4.246388428534   -0.070836027916
 H    3.653973820158   -3.714585204134    0.496804748814
 H    3.078242702217   -5.247088572469    0.090747310073
 C    0.211632280859   -1.780041869809    0.013629901654
 O    0.184051911754   -0.551868785032    0.009541773226
 C   -0.861152845117   -2.753735259083    0.019831099594
 N   -2.232226146886   -2.567404213770    0.019755914878
 C   -2.725749641397   -3.806007227815    0.009425815213
 H   -3.783247554665   -4.060153849647    0.006479170787
 H   -1.865137817145   -5.781001442911   -0.005275727612
RB    0.042612915596    5.746508425144   -0.011423166685
