17

 N   -1.736809232465   -4.918323233296    0.003862828879
 C   -0.526621165621   -4.263117029620    0.007824452847
 N    0.706791248682   -4.861794724082    0.019862737752
 C    1.677214448738   -3.971618582471    0.007990280779
 N    1.474137611325   -2.609980448957    0.001155120437
 H    2.277964736576   -1.990019909202   -0.080832901985
 N    3.002669202975   -4.390293304151   -0.070357022456
 H    3.657205408307   -3.858490079751    0.497283754274
 H    3.081474290366   -5.390993448086    0.091226315533
 C    0.214863869008   -1.923946745426    0.014108907114
 O    0.187283499903   -0.695773660649    0.010020778686
 C   -0.857921256968   -2.897640134700    0.020310105054
 N   -2.228994558737   -2.711309089387    0.020234920338
 C   -2.722518053248   -3.949912103432    0.009904820673
 H   -3.780015966516   -4.204058725264    0.006958176247
 H   -1.861906228996   -5.924906318528   -0.004796722152
RB    0.036864250020    6.002500515252   -0.012275268522
