17

 N   -1.736001335428   -4.954299452201    0.003982580244
 C   -0.525813268584   -4.299093248525    0.007944204212
 N    0.707599145719   -4.897770942987    0.019982489117
 C    1.678022345775   -4.007594801376    0.008110032144
 N    1.474945508362   -2.645956667862    0.001274871802
 H    2.278772633613   -2.025996128107   -0.080713150620
 N    3.003477100012   -4.426269523056   -0.070237271091
 H    3.658013305344   -3.894466298656    0.497403505639
 H    3.082282187403   -5.426969666991    0.091346066898
 C    0.215671766045   -1.959922964331    0.014228658479
 O    0.188091396940   -0.731749879554    0.010140530051
 C   -0.857113359931   -2.933616353605    0.020429856419
 N   -2.228186661700   -2.747285308292    0.020354671703
 C   -2.721710156211   -3.985888322337    0.010024572038
 H   -3.779208069479   -4.240034944169    0.007077927612
 H   -1.861098331959   -5.960882537433   -0.004676970787
RB    0.035427083627    6.066498537779   -0.012488293981
