17

 N   -1.734385541354   -5.026251890010    0.004222082973
 C   -0.524197474510   -4.371045686334    0.008183706941
 N    0.709214939793   -4.969723380796    0.020221991846
 C    1.679638139849   -4.079547239185    0.008349534873
 N    1.476561302436   -2.717909105671    0.001514374531
 H    2.280388427687   -2.097948565916   -0.080473647891
 N    3.005092894086   -4.498221960865   -0.069997768362
 H    3.659629099418   -3.966418736465    0.497643008368
 H    3.083897981477   -5.498922104800    0.091585569627
 C    0.217287560119   -2.031875402140    0.014468161208
 O    0.189707191014   -0.803702317363    0.010380032780
 C   -0.855497565857   -3.005568791414    0.020669359148
 N   -2.226570867626   -2.819237746101    0.020594174432
 C   -2.720094362137   -4.057840760146    0.010264074767
 H   -3.777592275405   -4.311987381978    0.007317430341
 H   -1.859482537885   -6.032834975242   -0.004437468058
RB    0.032552750839    6.194494582833   -0.012914344899
