17

 N   -1.731153953205   -5.170156765627    0.004701088433
 C   -0.520965886361   -4.514950561951    0.008662712401
 N    0.712446527942   -5.113628256413    0.020700997306
 C    1.682869727998   -4.223452114802    0.008828540333
 N    1.479792890585   -2.861813981288    0.001993379991
 H    2.283620015836   -2.241853441533   -0.079994642431
 N    3.008324482235   -4.642126836482   -0.069518762902
 H    3.662860687567   -4.110323612082    0.498122013828
 H    3.087129569626   -5.642826980417    0.092064575087
 C    0.220519148268   -2.175780277757    0.014947166668
 O    0.192938779163   -0.947607192980    0.010859038240
 C   -0.852265977708   -3.149473667031    0.021148364608
 N   -2.223339279477   -2.963142621718    0.021073179892
 C   -2.716862773988   -4.201745635763    0.010743080227
 H   -3.774360687256   -4.455892257595    0.007796435801
 H   -1.856250949736   -6.176739850859   -0.003958462598
RB    0.026804085263    6.450486672940   -0.013766446735
