17

 N   -1.729538159130   -5.242109203436    0.004940591163
 C   -0.519350092286   -4.586902999760    0.008902215131
 N    0.714062322017   -5.185580694222    0.020940500036
 C    1.684485522073   -4.295404552611    0.009068043063
 N    1.481408684660   -2.933766419097    0.002232882721
 H    2.285235809911   -2.313805879342   -0.079755139701
 N    3.009940276310   -4.714079274291   -0.069279260172
 H    3.664476481642   -4.182276049891    0.498361516558
 H    3.088745363701   -5.714779418226    0.092304077817
 C    0.222134942343   -2.247732715566    0.015186669398
 O    0.194554573238   -1.019559630789    0.011098540970
 C   -0.850650183633   -3.221426104840    0.021387867338
 N   -2.221723485402   -3.035095059527    0.021312682622
 C   -2.715246979913   -4.273698073572    0.010982582957
 H   -3.772744893181   -4.527844695404    0.008035938531
 H   -1.854635155661   -6.248692288668   -0.003718959868
RB    0.023929752476    6.578482717994   -0.014192497654
