17

 N   -1.727114468019   -5.350037860149    0.005299845257
 C   -0.516926401175   -4.694831656473    0.009261469225
 N    0.716486013128   -5.293509350935    0.021299754130
 C    1.686909213184   -4.403333209324    0.009427297157
 N    1.483832375771   -3.041695075810    0.002592136815
 H    2.287659501022   -2.421734536055   -0.079395885607
 N    3.012363967421   -4.822007931004   -0.068920006078
 H    3.666900172753   -4.290204706604    0.498720770652
 H    3.091169054812   -5.822708074939    0.092663331911
 C    0.224558633454   -2.355661372279    0.015545923492
 O    0.196978264349   -1.127488287502    0.011457795064
 C   -0.848226492522   -3.329354761553    0.021747121432
 N   -2.219299794291   -3.143023716240    0.021671936716
 C   -2.712823288802   -4.381626730285    0.011341837051
 H   -3.770321202070   -4.635773352117    0.008395192625
 H   -1.852211464550   -6.356620945381   -0.003359705774
RB    0.019618253294    6.770476785575   -0.014831574031
