17

 N   -1.725498673944   -5.421990297958    0.005539347987
 C   -0.515310607100   -4.766784094282    0.009500971955
 N    0.718101807203   -5.365461788744    0.021539256860
 C    1.688525007259   -4.475285647133    0.009666799887
 N    1.485448169846   -3.113647513619    0.002831639545
 H    2.289275295097   -2.493686973864   -0.079156382877
 N    3.013979761496   -4.893960368813   -0.068680503348
 H    3.668515966828   -4.362157144413    0.498960273382
 H    3.092784848887   -5.894660512748    0.092902834641
 C    0.226174427529   -2.427613810088    0.015785426222
 O    0.198594058424   -1.199440725311    0.011697297794
 C   -0.846610698447   -3.401307199362    0.021986624162
 N   -2.217684000216   -3.214976154049    0.021911439446
 C   -2.711207494727   -4.453579168094    0.011581339781
 H   -3.768705407995   -4.707725789926    0.008634695355
 H   -1.850595670475   -6.428573383190   -0.003120203044
RB    0.016743920506    6.898472830629   -0.015257624949
