17

 N   -1.723882879870   -5.493942735767    0.005778850717
 C   -0.513694813026   -4.838736532091    0.009740474685
 N    0.719717601277   -5.437414226553    0.021778759590
 C    1.690140801333   -4.547238084942    0.009906302617
 N    1.487063963920   -3.185599951428    0.003071142275
 H    2.290891089171   -2.565639411673   -0.078916880147
 N    3.015595555570   -4.965912806622   -0.068441000618
 H    3.670131760902   -4.434109582222    0.499199776112
 H    3.094400642961   -5.966612950557    0.093142337371
 C    0.227790221603   -2.499566247897    0.016024928952
 O    0.200209852498   -1.271393163120    0.011936800524
 C   -0.844994904373   -3.473259637171    0.022226126892
 N   -2.216068206142   -3.286928591858    0.022150942176
 C   -2.709591700653   -4.525531605903    0.011820842511
 H   -3.767089613921   -4.779678227735    0.008874198085
 H   -1.848979876401   -6.500525820999   -0.002880700314
RB    0.013869587719    7.026468875683   -0.015683675867
