17

 N   -1.721459188758   -5.601871392480    0.006138104812
 C   -0.511271121914   -4.946665188804    0.010099728780
 N    0.722141292389   -5.545342883266    0.022138013685
 C    1.692564492445   -4.655166741655    0.010265556712
 N    1.489487655032   -3.293528608141    0.003430396370
 H    2.293314780283   -2.673568068386   -0.078557626052
 N    3.018019246682   -5.073841463335   -0.068081746523
 H    3.672555452014   -4.542038238935    0.499559030207
 H    3.096824334073   -6.074541607270    0.093501591466
 C    0.230213912715   -2.607494904610    0.016384183047
 O    0.202633543610   -1.379321819833    0.012296054619
 C   -0.842571213261   -3.581188293884    0.022585380987
 N   -2.213644515030   -3.394857248571    0.022510196271
 C   -2.707168009541   -4.633460262616    0.012180096606
 H   -3.764665922809   -4.887606884448    0.009233452180
 H   -1.846556185289   -6.608454477712   -0.002521446219
RB    0.009558088537    7.218462943264   -0.016322752244
