17

 N   -1.720651291721   -5.637847611385    0.006257856177
 C   -0.510463224877   -4.982641407709    0.010219480145
 N    0.722949189426   -5.581319102171    0.022257765050
 C    1.693372389482   -4.691142960560    0.010385308077
 N    1.490295552069   -3.329504827046    0.003550147735
 H    2.294122677320   -2.709544287291   -0.078437874687
 N    3.018827143719   -5.109817682240   -0.067961995158
 H    3.673363349051   -4.578014457840    0.499678781572
 H    3.097632231110   -6.110517826175    0.093621342831
 C    0.231021809752   -2.643471123515    0.016503934412
 O    0.203441440647   -1.415298038738    0.012415805984
 C   -0.841763316224   -3.617164512789    0.022705132352
 N   -2.212836617993   -3.430833467476    0.022629947636
 C   -2.706360112504   -4.669436481521    0.012299847971
 H   -3.763858025772   -4.923583103353    0.009353203545
 H   -1.845748288252   -6.644430696617   -0.002401694854
RB    0.008120922143    7.282460965791   -0.016535777704
