17

 N   -1.714996012460   -5.889681143715    0.007096115731
 C   -0.504807945616   -5.234474940039    0.011057739699
 N    0.728604468687   -5.833152634501    0.023096024604
 C    1.699027668743   -4.942976492890    0.011223567631
 N    1.495950831330   -3.581338359376    0.004388407289
 H    2.299777956581   -2.961377819621   -0.077599615133
 N    3.024482422980   -5.361651214570   -0.067123735604
 H    3.679018628312   -4.829847990170    0.500517041126
 H    3.103287510371   -6.362351358505    0.094459602385
 C    0.236677089013   -2.895304655845    0.017342193966
 O    0.209096719908   -1.667131571068    0.013254065538
 C   -0.836108036963   -3.868998045119    0.023543391906
 N   -2.207181338732   -3.682666999806    0.023468207190
 C   -2.700704833243   -4.921270013851    0.013138107525
 H   -3.758202746511   -5.175416635683    0.010191463099
 H   -1.840093008991   -6.896264228947   -0.001563435300
RB   -0.001939242614    7.730447123479   -0.018026955917
