17

 N   -1.712572321349   -5.997609800429    0.007455369826
 C   -0.502384254505   -5.342403596753    0.011416993794
 N    0.731028159798   -5.941081291215    0.023455278699
 C    1.701451359854   -5.050905149604    0.011582821726
 N    1.498374522441   -3.689267016090    0.004747661384
 H    2.302201647692   -3.069306476335   -0.077240361038
 N    3.026906114091   -5.469579871284   -0.066764481509
 H    3.681442319423   -4.937776646884    0.500876295221
 H    3.105711201482   -6.470280015219    0.094818856480
 C    0.239100780124   -3.003233312559    0.017701448061
 O    0.211520411019   -1.775060227782    0.013613319633
 C   -0.833684345852   -3.976926701833    0.023902646001
 N   -2.204757647621   -3.790595656520    0.023827461285
 C   -2.698281142132   -5.029198670565    0.013497361620
 H   -3.755779055400   -5.283345292397    0.010550717194
 H   -1.837669317880   -7.004192885661   -0.001204181205
RB   -0.006250741795    7.922441191060   -0.018666032295
