9

 C   -1.884204479655   -0.022683537907    0.000000000000
 H   -2.863131479655    0.469104462093    0.000000000000
 H   -1.777058479655   -0.662492537907    0.888272000000
 H   -1.777058479655   -0.662492537907   -0.888272000000
 C   -0.799577479655    1.022900462093    0.000000000000
 O   -0.960681479655    2.232451462093    0.000000000000
 O    0.442708520345    0.445892462093    0.000000000000
 H    1.077244520345    1.184455462093    0.000000000000
RB    0.540232475774   -0.649775862774    0.000000000000
