9

 C   -1.889398690535    0.035672712192    0.000000000000
 H   -2.868325690535    0.527460712192    0.000000000000
 H   -1.782252690535   -0.604136287808    0.888272000000
 H   -1.782252690535   -0.604136287808   -0.888272000000
 C   -0.804771690535    1.081256712192    0.000000000000
 O   -0.965875690535    2.290807712192    0.000000000000
 O    0.437514309465    0.504248712192    0.000000000000
 H    1.072050309465    1.242811712192    0.000000000000
RB    0.543904079025   -0.691025824027    0.000000000000
