9

 C   -1.899787112295    0.152385212389    0.000000000000
 H   -2.878714112295    0.644173212389    0.000000000000
 H   -1.792641112295   -0.487423787611    0.888272000000
 H   -1.792641112295   -0.487423787611   -0.888272000000
 C   -0.815160112295    1.197969212389    0.000000000000
 O   -0.976264112295    2.407520212389    0.000000000000
 O    0.427125887705    0.620961212389    0.000000000000
 H    1.061661887705    1.359524212389    0.000000000000
RB    0.551247285525   -0.773525746533    0.000000000000
