9

 C   -1.910175534054    0.269097712587    0.000000000000
 H   -2.889102534054    0.760885712587    0.000000000000
 H   -1.803029534054   -0.370711287413    0.888272000000
 H   -1.803029534054   -0.370711287413   -0.888272000000
 C   -0.825548534054    1.314681712587    0.000000000000
 O   -0.986652534054    2.524232712587    0.000000000000
 O    0.416737465946    0.737673712587    0.000000000000
 H    1.051273465946    1.476236712587    0.000000000000
RB    0.558590492025   -0.856025669038    0.000000000000
