9

 C   -1.925758166694    0.444166462883    0.000000000000
 H   -2.904685166694    0.935954462883    0.000000000000
 H   -1.818612166694   -0.195642537117    0.888272000000
 H   -1.818612166694   -0.195642537117   -0.888272000000
 C   -0.841131166694    1.489750462883    0.000000000000
 O   -1.002235166694    2.699301462883    0.000000000000
 O    0.401154833306    0.912742462883    0.000000000000
 H    1.035690833306    1.651305462883    0.000000000000
RB    0.569605301776   -0.979775552797    0.000000000000
