9

 C   -1.936146588453    0.560878963080    0.000000000000
 H   -2.915073588453    1.052666963080    0.000000000000
 H   -1.829000588453   -0.078930036920    0.888272000000
 H   -1.829000588453   -0.078930036920   -0.888272000000
 C   -0.851519588453    1.606462963080    0.000000000000
 O   -1.012623588453    2.816013963080    0.000000000000
 O    0.390766411547    1.029454963080    0.000000000000
 H    1.025302411547    1.768017963080    0.000000000000
RB    0.576948508276   -1.062275475303    0.000000000000
