9

 C   -1.967311853732    0.911016463672    0.000000000000
 H   -2.946238853732    1.402804463672    0.000000000000
 H   -1.860165853732    0.271207463672    0.888272000000
 H   -1.860165853732    0.271207463672   -0.888272000000
 C   -0.882684853732    1.956600463672    0.000000000000
 O   -1.043788853732    3.166151463672    0.000000000000
 O    0.359601146268    1.379592463672    0.000000000000
 H    0.994137146268    2.118155463672    0.000000000000
RB    0.598978127777   -1.309775242821    0.000000000000
