9

 C   -1.988088697251    1.144441464066    0.000000000000
 H   -2.967015697251    1.636229464066    0.000000000000
 H   -1.880942697251    0.504632464066    0.888272000000
 H   -1.880942697251    0.504632464066   -0.888272000000
 C   -0.903461697251    2.190025464066    0.000000000000
 O   -1.064565697251    3.399576464066    0.000000000000
 O    0.338824302749    1.613017464066    0.000000000000
 H    0.973360302749    2.351580464066    0.000000000000
RB    0.613664540778   -1.474775087832    0.000000000000
