9

 C   -1.998477119011    1.261153964263    0.000000000000
 H   -2.977404119011    1.752941964263    0.000000000000
 H   -1.891331119011    0.621344964263    0.888272000000
 H   -1.891331119011    0.621344964263   -0.888272000000
 C   -0.913850119011    2.306737964263    0.000000000000
 O   -1.074954119011    3.516288964263    0.000000000000
 O    0.328435880989    1.729729964263    0.000000000000
 H    0.962971880989    2.468292964263    0.000000000000
RB    0.621007747278   -1.557275010338    0.000000000000
