9

 C   -2.040030806049    1.728003965053    0.000000000000
 H   -3.018957806049    2.219791965053    0.000000000000
 H   -1.932884806049    1.088194965053    0.888272000000
 H   -1.932884806049    1.088194965053   -0.888272000000
 C   -0.955403806049    2.773587965053    0.000000000000
 O   -1.116507806049    3.983138965053    0.000000000000
 O    0.286882193951    2.196579965053    0.000000000000
 H    0.921418193951    2.935142965053    0.000000000000
RB    0.650380573280   -1.887274700362    0.000000000000
