9

 C   -2.045225016929    1.786360215151    0.000000000000
 H   -3.024152016929    2.278148215151    0.000000000000
 H   -1.938079016929    1.146551215151    0.888272000000
 H   -1.938079016929    1.146551215151   -0.888272000000
 C   -0.960598016929    2.831944215151    0.000000000000
 O   -1.121702016929    4.041495215151    0.000000000000
 O    0.281687983071    2.254936215151    0.000000000000
 H    0.916223983071    2.993499215151    0.000000000000
RB    0.654052176530   -1.928524661615    0.000000000000
