9

 C   -2.050419227808    1.844716465250    0.000000000000
 H   -3.029346227808    2.336504465250    0.000000000000
 H   -1.943273227808    1.204907465250    0.888272000000
 H   -1.943273227808    1.204907465250   -0.888272000000
 C   -0.965792227808    2.890300465250    0.000000000000
 O   -1.126896227808    4.099851465250    0.000000000000
 O    0.276493772192    2.313292465250    0.000000000000
 H    0.911029772192    3.051855465250    0.000000000000
RB    0.657723779780   -1.969774622867    0.000000000000
