9

 C   -2.066001860448    2.019785215546    0.000000000000
 H   -3.044928860448    2.511573215546    0.000000000000
 H   -1.958855860448    1.379976215546    0.888272000000
 H   -1.958855860448    1.379976215546   -0.888272000000
 C   -0.981374860448    3.065369215546    0.000000000000
 O   -1.142478860448    4.274920215546    0.000000000000
 O    0.260911139552    2.488361215546    0.000000000000
 H    0.895447139552    3.226924215546    0.000000000000
RB    0.668738589531   -2.093524506626    0.000000000000
