9

 C   -2.081584493087    2.194853965842    0.000000000000
 H   -3.060511493087    2.686641965842    0.000000000000
 H   -1.974438493087    1.555044965842    0.888272000000
 H   -1.974438493087    1.555044965842   -0.888272000000
 C   -0.996957493087    3.240437965842    0.000000000000
 O   -1.158061493087    4.449988965842    0.000000000000
 O    0.245328506913    2.663429965842    0.000000000000
 H    0.879864506913    3.401992965842    0.000000000000
RB    0.679753399281   -2.217274390385    0.000000000000
