9

 C   -2.086778703967    2.253210215940    0.000000000000
 H   -3.065705703967    2.744998215940    0.000000000000
 H   -1.979632703967    1.613401215940    0.888272000000
 H   -1.979632703967    1.613401215940   -0.888272000000
 C   -1.002151703967    3.298794215940    0.000000000000
 O   -1.163255703967    4.508345215940    0.000000000000
 O    0.240134296033    2.721786215940    0.000000000000
 H    0.874670296033    3.460349215940    0.000000000000
RB    0.683425002532   -2.258524351638    0.000000000000
