9

 C   -2.091972914847    2.311566466039    0.000000000000
 H   -3.070899914847    2.803354466039    0.000000000000
 H   -1.984826914847    1.671757466039    0.888272000000
 H   -1.984826914847    1.671757466039   -0.888272000000
 C   -1.007345914847    3.357150466039    0.000000000000
 O   -1.168449914847    4.566701466039    0.000000000000
 O    0.234940085153    2.780142466039    0.000000000000
 H    0.869476085153    3.518705466039    0.000000000000
RB    0.687096605782   -2.299774312891    0.000000000000
