9

 C   -2.107555547486    2.486635216335    0.000000000000
 H   -3.086482547486    2.978423216335    0.000000000000
 H   -2.000409547486    1.846826216335    0.888272000000
 H   -2.000409547486    1.846826216335   -0.888272000000
 C   -1.022928547486    3.532219216335    0.000000000000
 O   -1.184032547486    4.741770216335    0.000000000000
 O    0.219357452514    2.955211216335    0.000000000000
 H    0.853893452514    3.693774216335    0.000000000000
RB    0.698111415532   -2.423524196650    0.000000000000
