9

 C   -2.112749758366    2.544991466434    0.000000000000
 H   -3.091676758366    3.036779466434    0.000000000000
 H   -2.005603758366    1.905182466434    0.888272000000
 H   -2.005603758366    1.905182466434   -0.888272000000
 C   -1.028122758366    3.590575466434    0.000000000000
 O   -1.189226758366    4.800126466434    0.000000000000
 O    0.214163241634    3.013567466434    0.000000000000
 H    0.848699241634    3.752130466434    0.000000000000
RB    0.701783018782   -2.464774157903    0.000000000000
