9

 C   -2.128332391005    2.720060216729    0.000000000000
 H   -3.107259391005    3.211848216729    0.000000000000
 H   -2.021186391005    2.080251216729    0.888272000000
 H   -2.021186391005    2.080251216729   -0.888272000000
 C   -1.043705391005    3.765644216729    0.000000000000
 O   -1.204809391005    4.975195216729    0.000000000000
 O    0.198580608995    3.188636216729    0.000000000000
 H    0.833116608995    3.927199216729    0.000000000000
RB    0.712797828533   -2.588524041661    0.000000000000
