9

 C   -2.180274499803    3.303622717716    0.000000000000
 H   -3.159201499803    3.795410717716    0.000000000000
 H   -2.073128499803    2.663813717716    0.888272000000
 H   -2.073128499803    2.663813717716   -0.888272000000
 C   -1.095647499803    4.349206717716    0.000000000000
 O   -1.256751499803    5.558757717716    0.000000000000
 O    0.146638500197    3.772198717716    0.000000000000
 H    0.781174500197    4.510761717716    0.000000000000
RB    0.749513861035   -3.001023654191    0.000000000000
