9

 C   -2.185468710683    3.361978967814    0.000000000000
 H   -3.164395710683    3.853766967814    0.000000000000
 H   -2.078322710683    2.722169967814    0.888272000000
 H   -2.078322710683    2.722169967814   -0.888272000000
 C   -1.100841710683    4.407562967814    0.000000000000
 O   -1.261945710683    5.617113967814    0.000000000000
 O    0.141444289317    3.830554967814    0.000000000000
 H    0.775980289317    4.569117967814    0.000000000000
RB    0.753185464285   -3.042273615444    0.000000000000
