9

 C   -2.201051343322    3.537047718110    0.000000000000
 H   -3.179978343322    4.028835718110    0.000000000000
 H   -2.093905343322    2.897238718110    0.888272000000
 H   -2.093905343322    2.897238718110   -0.888272000000
 C   -1.116424343322    4.582631718110    0.000000000000
 O   -1.277528343322    5.792182718110    0.000000000000
 O    0.125861656678    4.005623718110    0.000000000000
 H    0.760397656678    4.744186718110    0.000000000000
RB    0.764200274036   -3.166023499202    0.000000000000
