9

 C   -2.216633975962    3.712116468406    0.000000000000
 H   -3.195560975962    4.203904468406    0.000000000000
 H   -2.109487975962    3.072307468406    0.888272000000
 H   -2.109487975962    3.072307468406   -0.888272000000
 C   -1.132006975962    4.757700468406    0.000000000000
 O   -1.293110975962    5.967251468406    0.000000000000
 O    0.110279024038    4.180692468406    0.000000000000
 H    0.744815024038    4.919255468406    0.000000000000
RB    0.775215083786   -3.289773382961    0.000000000000
