9

 C   -2.227022397721    3.828828968604    0.000000000000
 H   -3.205949397721    4.320616968604    0.000000000000
 H   -2.119876397721    3.189019968604    0.888272000000
 H   -2.119876397721    3.189019968604   -0.888272000000
 C   -1.142395397721    4.874412968604    0.000000000000
 O   -1.303499397721    6.083963968604    0.000000000000
 O    0.099890602279    4.297404968604    0.000000000000
 H    0.734426602279    5.035967968604    0.000000000000
RB    0.782558290286   -3.372273305467    0.000000000000
