9

 C   -2.237410819481    3.945541468801    0.000000000000
 H   -3.216337819481    4.437329468801    0.000000000000
 H   -2.130264819481    3.305732468801    0.888272000000
 H   -2.130264819481    3.305732468801   -0.888272000000
 C   -1.152783819481    4.991125468801    0.000000000000
 O   -1.313887819481    6.200676468801    0.000000000000
 O    0.089502180519    4.414117468801    0.000000000000
 H    0.724038180519    5.152680468801    0.000000000000
RB    0.789901496787   -3.454773227973    0.000000000000
