9

 C   -2.242605030360    4.003897718899    0.000000000000
 H   -3.221532030360    4.495685718899    0.000000000000
 H   -2.135459030360    3.364088718899    0.888272000000
 H   -2.135459030360    3.364088718899   -0.888272000000
 C   -1.157978030360    5.049481718899    0.000000000000
 O   -1.319082030360    6.259032718899    0.000000000000
 O    0.084307969640    4.472473718899    0.000000000000
 H    0.718843969640    5.211036718899    0.000000000000
RB    0.793573100037   -3.496023189226    0.000000000000
