9

 C   -2.247799241240    4.062253968998    0.000000000000
 H   -3.226726241240    4.554041968998    0.000000000000
 H   -2.140653241240    3.422444968998    0.888272000000
 H   -2.140653241240    3.422444968998   -0.888272000000
 C   -1.163172241240    5.107837968998    0.000000000000
 O   -1.324276241240    6.317388968998    0.000000000000
 O    0.079113758760    4.530829968998    0.000000000000
 H    0.713649758760    5.269392968998    0.000000000000
RB    0.797244703287   -3.537273150479    0.000000000000
