9

 C   -2.252993452120    4.120610219097    0.000000000000
 H   -3.231920452120    4.612398219097    0.000000000000
 H   -2.145847452120    3.480801219097    0.888272000000
 H   -2.145847452120    3.480801219097   -0.888272000000
 C   -1.168366452120    5.166194219097    0.000000000000
 O   -1.329470452120    6.375745219097    0.000000000000
 O    0.073919547880    4.589186219097    0.000000000000
 H    0.708455547880    5.327749219097    0.000000000000
RB    0.800916306537   -3.578523111732    0.000000000000
