9

 C   -2.284158717399    4.470747719689    0.000000000000
 H   -3.263085717399    4.962535719689    0.000000000000
 H   -2.177012717399    3.830938719689    0.888272000000
 H   -2.177012717399    3.830938719689   -0.888272000000
 C   -1.199531717399    5.516331719689    0.000000000000
 O   -1.360635717399    6.725882719689    0.000000000000
 O    0.042754282601    4.939323719689    0.000000000000
 H    0.677290282601    5.677886719689    0.000000000000
RB    0.822945926038   -3.826022879249    0.000000000000
