9

 C   -2.299741350038    4.645816469984    0.000000000000
 H   -3.278668350038    5.137604469984    0.000000000000
 H   -2.192595350038    4.006007469984    0.888272000000
 H   -2.192595350038    4.006007469984   -0.888272000000
 C   -1.215114350038    5.691400469984    0.000000000000
 O   -1.376218350038    6.900951469984    0.000000000000
 O    0.027171649962    5.114392469984    0.000000000000
 H    0.661707649962    5.852955469984    0.000000000000
RB    0.833960735789   -3.949772763008    0.000000000000
