9

 C   -2.315323982677    4.820885220280    0.000000000000
 H   -3.294250982677    5.312673220280    0.000000000000
 H   -2.208177982677    4.181076220280    0.888272000000
 H   -2.208177982677    4.181076220280   -0.888272000000
 C   -1.230696982677    5.866469220280    0.000000000000
 O   -1.391800982677    7.076020220280    0.000000000000
 O    0.011589017323    5.289461220280    0.000000000000
 H    0.646125017323    6.028024220280    0.000000000000
RB    0.844975545540   -4.073522646767    0.000000000000
