9

 C   -2.320518193557    4.879241470379    0.000000000000
 H   -3.299445193557    5.371029470379    0.000000000000
 H   -2.213372193557    4.239432470379    0.888272000000
 H   -2.213372193557    4.239432470379   -0.888272000000
 C   -1.235891193557    5.924825470379    0.000000000000
 O   -1.396995193557    7.134376470379    0.000000000000
 O    0.006394806443    5.347817470379    0.000000000000
 H    0.640930806443    6.086380470379    0.000000000000
RB    0.848647148790   -4.114772608020    0.000000000000
