9

 C   -2.336100826197    5.054310220675    0.000000000000
 H   -3.315027826197    5.546098220675    0.000000000000
 H   -2.228954826197    4.414501220675    0.888272000000
 H   -2.228954826197    4.414501220675   -0.888272000000
 C   -1.251473826197    6.099894220675    0.000000000000
 O   -1.412577826197    7.309445220675    0.000000000000
 O   -0.009187826197    5.522886220675    0.000000000000
 H    0.625348173803    6.261449220675    0.000000000000
RB    0.859661958540   -4.238522491779    0.000000000000
