13

 C    1.559237296080    2.393925184792    0.000000000000
 O    1.965487296080    1.006555184792    0.000000000000
 H    2.930877296080    0.962515184792    0.000000000000
 H    0.459317296080    2.385985184792    0.000000000000
 H    1.904827296080    2.912365184792    0.903540000000
 H    1.904827296080    2.912365184792   -0.903540000000
 K   -0.244232703920   -0.125074815208    0.000000000000
 O   -1.668348580151   -0.854385428779    0.000000000000
 C   -1.262099812224   -2.241759940386    0.000000000000
 H   -2.633734470425   -0.810343233564    0.000000000000
 H   -0.162178497439   -2.233816151500    0.000000000000
 H   -1.607691743850   -2.760190586866   -0.903542989118
 H   -1.607691743850   -2.760190586866    0.903542989118
