13

 C    1.614579403950    2.422266689384    0.000000000000
 O    2.020829403950    1.034896689384    0.000000000000
 H    2.986219403950    0.990856689384    0.000000000000
 H    0.514659403950    2.414326689384    0.000000000000
 H    1.960169403950    2.940706689384    0.903540000000
 H    1.960169403950    2.940706689384   -0.903540000000
 K   -0.188890596050   -0.096733310616    0.000000000000
 O   -1.791020956810   -0.917207750883    0.000000000000
 C   -1.384772188884   -2.304582262490    0.000000000000
 H   -2.756406847085   -0.873165555668    0.000000000000
 H   -0.284850874099   -2.296638473604    0.000000000000
 H   -1.730364120510   -2.823012908970   -0.903542989118
 H   -1.730364120510   -2.823012908970    0.903542989118
