13

 C    1.642250457884    2.436437441680    0.000000000000
 O    2.048500457884    1.049067441680    0.000000000000
 H    3.013890457884    1.005027441680    0.000000000000
 H    0.542330457884    2.428497441680    0.000000000000
 H    1.987840457884    2.954877441680    0.903540000000
 H    1.987840457884    2.954877441680   -0.903540000000
 K   -0.161219542116   -0.082562558320    0.000000000000
 O   -1.852357145140   -0.948618911935    0.000000000000
 C   -1.446108377213   -2.335993423542    0.000000000000
 H   -2.817743035414   -0.904576716720    0.000000000000
 H   -0.346187062429   -2.328049634656    0.000000000000
 H   -1.791700308840   -2.854424070022   -0.903542989118
 H   -1.791700308840   -2.854424070022    0.903542989118
