13

 C    3.883605826588    3.584268377675    0.000000000000
 O    4.289855826588    2.196898377675    0.000000000000
 H    5.255245826588    2.152858377675    0.000000000000
 H    2.783685826588    3.576328377675    0.000000000000
 H    4.229195826588    4.102708377675    0.903540000000
 H    4.229195826588    4.102708377675   -0.903540000000
 K    2.080135826588    1.065268377675    0.000000000000
 O   -6.820588399856   -3.492922957141    0.000000000000
 C   -6.414339631929   -4.880297468749    0.000000000000
 H   -7.785974290130   -3.448880761926    0.000000000000
 H   -5.314418317144   -4.872353679862    0.000000000000
 H   -6.759931563556   -5.398728115229   -0.903542989118
 H   -6.759931563556   -5.398728115229    0.903542989118
