13

 C    3.911276880523    3.598439129971    0.000000000000
 O    4.317526880523    2.211069129971    0.000000000000
 H    5.282916880523    2.167029129971    0.000000000000
 H    2.811356880523    3.590499129971    0.000000000000
 H    4.256866880523    4.116879129971    0.903540000000
 H    4.256866880523    4.116879129971   -0.903540000000
 K    2.107806880523    1.079439129971    0.000000000000
 O   -6.881924588186   -3.524334118193    0.000000000000
 C   -6.475675820259   -4.911708629801    0.000000000000
 H   -7.847310478460   -3.480291922978    0.000000000000
 H   -5.375754505474   -4.903764840914    0.000000000000
 H   -6.821267751885   -5.430139276281   -0.903542989118
 H   -6.821267751885   -5.430139276281    0.903542989118
