13

 C    3.966618988392    3.626780634564    0.000000000000
 O    4.372868988392    2.239410634564    0.000000000000
 H    5.338258988392    2.195370634564    0.000000000000
 H    2.866698988392    3.618840634564    0.000000000000
 H    4.312208988392    4.145220634564    0.903540000000
 H    4.312208988392    4.145220634564   -0.903540000000
 K    2.163148988392    1.107780634564    0.000000000000
 O   -7.004596964845   -3.587156440297    0.000000000000
 C   -6.598348196919   -4.974530951905    0.000000000000
 H   -7.969982855120   -3.543114245082    0.000000000000
 H   -5.498426882134   -4.966587163018    0.000000000000
 H   -6.943940128545   -5.492961598384   -0.903542989118
 H   -6.943940128545   -5.492961598384    0.903542989118
