13

 C    3.994290042326    3.640951386860    0.000000000000
 O    4.400540042326    2.253581386860    0.000000000000
 H    5.365930042326    2.209541386860    0.000000000000
 H    2.894370042326    3.633011386860    0.000000000000
 H    4.339880042326    4.159391386860    0.903540000000
 H    4.339880042326    4.159391386860   -0.903540000000
 K    2.190820042326    1.121951386860    0.000000000000
 O   -7.065933153175   -3.618567601349    0.000000000000
 C   -6.659684385248   -5.005942112957    0.000000000000
 H   -8.031319043449   -3.574525406134    0.000000000000
 H   -5.559763070463   -4.997998324070    0.000000000000
 H   -7.005276316875   -5.524372759436   -0.903542989118
 H   -7.005276316875   -5.524372759436    0.903542989118
