13

 C    4.021961096261    3.655122139156    0.000000000000
 O    4.428211096261    2.267752139156    0.000000000000
 H    5.393601096261    2.223712139156    0.000000000000
 H    2.922041096261    3.647182139156    0.000000000000
 H    4.367551096261    4.173562139156    0.903540000000
 H    4.367551096261    4.173562139156   -0.903540000000
 K    2.218491096261    1.136122139156    0.000000000000
 O   -7.127269341505   -3.649978762401    0.000000000000
 C   -6.721020573578   -5.037353274008    0.000000000000
 H   -8.092655231779   -3.605936567186    0.000000000000
 H   -5.621099258793   -5.029409485122    0.000000000000
 H   -7.066612505205   -5.555783920488   -0.903542989118
 H   -7.066612505205   -5.555783920488    0.903542989118
