13

 C    4.132645312000    3.711805148341    0.000000000000
 O    4.538895312000    2.324435148341    0.000000000000
 H    5.504285312000    2.280395148341    0.000000000000
 H    3.032725312000    3.703865148341    0.000000000000
 H    4.478235312000    4.230245148341    0.903540000000
 H    4.478235312000    4.230245148341   -0.903540000000
 K    2.329175312000    1.192805148341    0.000000000000
 O   -7.372614094824   -3.775623406609    0.000000000000
 C   -6.966365326897   -5.162997918216    0.000000000000
 H   -8.337999985098   -3.731581211394    0.000000000000
 H   -5.866444012113   -5.155054129330    0.000000000000
 H   -7.311957258524   -5.681428564696   -0.903542989118
 H   -7.311957258524   -5.681428564696    0.903542989118
