13

 C    1.752934673623    2.493120450865    0.000000000000
 O    2.159184673623    1.105750450865    0.000000000000
 H    3.124574673623    1.061710450865    0.000000000000
 H    0.653014673623    2.485180450865    0.000000000000
 H    2.098524673623    3.011560450865    0.903540000000
 H    2.098524673623    3.011560450865   -0.903540000000
 K   -0.050535326377   -0.025879549135    0.000000000000
 O   -2.097701898459   -1.074263556142    0.000000000000
 C   -1.691453130533   -2.461638067750    0.000000000000
 H   -3.063087788734   -1.030221360927    0.000000000000
 H   -0.591531815748   -2.453694278864    0.000000000000
 H   -2.037045062159   -2.980068714230   -0.903542989118
 H   -2.037045062159   -2.980068714230    0.903542989118
