13

 C    1.863618889361    2.549803460050    0.000000000000
 O    2.269868889361    1.162433460050    0.000000000000
 H    3.235258889361    1.118393460050    0.000000000000
 H    0.763698889361    2.541863460050    0.000000000000
 H    2.209208889361    3.068243460050    0.903540000000
 H    2.209208889361    3.068243460050   -0.903540000000
 K    0.060148889361    0.030803460050    0.000000000000
 O   -2.343046651779   -1.199908200350    0.000000000000
 C   -1.936797883852   -2.587282711958    0.000000000000
 H   -3.308432542053   -1.155866005135    0.000000000000
 H   -0.836876569067   -2.579338923071    0.000000000000
 H   -2.282389815479   -3.105713358438   -0.903542989118
 H   -2.282389815479   -3.105713358438    0.903542989118
