13

 C    1.946632051165    2.592315716939    0.000000000000
 O    2.352882051165    1.204945716939    0.000000000000
 H    3.318272051165    1.160905716939    0.000000000000
 H    0.846712051165    2.584375716939    0.000000000000
 H    2.292222051165    3.110755716939    0.903540000000
 H    2.292222051165    3.110755716939   -0.903540000000
 K    0.143162051165    0.073315716939    0.000000000000
 O   -2.527055216768   -1.294141683506    0.000000000000
 C   -2.120806448841   -2.681516195113    0.000000000000
 H   -3.492441107042   -1.250099488291    0.000000000000
 H   -1.020885134057   -2.673572406227    0.000000000000
 H   -2.466398380468   -3.199946841593   -0.903542989118
 H   -2.466398380468   -3.199946841593    0.903542989118
