13

 C    2.001974159034    2.620657221531    0.000000000000
 O    2.408224159034    1.233287221531    0.000000000000
 H    3.373614159034    1.189247221531    0.000000000000
 H    0.902054159034    2.612717221531    0.000000000000
 H    2.347564159034    3.139097221531    0.903540000000
 H    2.347564159034    3.139097221531   -0.903540000000
 K    0.198504159034    0.101657221531    0.000000000000
 O   -2.649727593428   -1.356964005610    0.000000000000
 C   -2.243478825501   -2.744338517217    0.000000000000
 H   -3.615113483702   -1.312921810395    0.000000000000
 H   -1.143557510716   -2.736394728331    0.000000000000
 H   -2.589070757128   -3.262769163697   -0.903542989118
 H   -2.589070757128   -3.262769163697    0.903542989118
