13

 C    2.140329428707    2.691510983013    0.000000000000
 O    2.546579428707    1.304140983013    0.000000000000
 H    3.511969428707    1.260100983013    0.000000000000
 H    1.040409428707    2.683570983013    0.000000000000
 H    2.485919428707    3.209950983013    0.903540000000
 H    2.485919428707    3.209950983013   -0.903540000000
 K    0.336859428707    0.172510983013    0.000000000000
 O   -2.956408535077   -1.514019810870    0.000000000000
 C   -2.550159767150   -2.901394322477    0.000000000000
 H   -3.921794425351   -1.469977615654    0.000000000000
 H   -1.450238452365   -2.893450533591    0.000000000000
 H   -2.895751698777   -3.419824968957   -0.903542989118
 H   -2.895751698777   -3.419824968957    0.903542989118
