13

 C    2.168000482642    2.705681735309    0.000000000000
 O    2.574250482642    1.318311735309    0.000000000000
 H    3.539640482642    1.274271735309    0.000000000000
 H    1.068080482642    2.697741735309    0.000000000000
 H    2.513590482642    3.224121735309    0.903540000000
 H    2.513590482642    3.224121735309   -0.903540000000
 K    0.364530482642    0.186681735309    0.000000000000
 O   -3.017744723407   -1.545430971921    0.000000000000
 C   -2.611495955480   -2.932805483529    0.000000000000
 H   -3.983130613681   -1.501388776706    0.000000000000
 H   -1.511574640695   -2.924861694643    0.000000000000
 H   -2.957087887107   -3.451236130009   -0.903542989118
 H   -2.957087887107   -3.451236130009    0.903542989118
