13

 C    2.195671536576    2.719852487605    0.000000000000
 O    2.601921536576    1.332482487605    0.000000000000
 H    3.567311536576    1.288442487605    0.000000000000
 H    1.095751536576    2.711912487605    0.000000000000
 H    2.541261536576    3.238292487605    0.903540000000
 H    2.541261536576    3.238292487605   -0.903540000000
 K    0.392201536576    0.200852487605    0.000000000000
 O   -3.079080911737   -1.576842132973    0.000000000000
 C   -2.672832143810   -2.964216644581    0.000000000000
 H   -4.044466802011   -1.532799937758    0.000000000000
 H   -1.572910829025   -2.956272855695    0.000000000000
 H   -3.018424075436   -3.482647291061   -0.903542989118
 H   -3.018424075436   -3.482647291061    0.903542989118
