13

 C    2.251013644446    2.748193992197    0.000000000000
 O    2.657263644446    1.360823992197    0.000000000000
 H    3.622653644446    1.316783992197    0.000000000000
 H    1.151093644446    2.740253992197    0.000000000000
 H    2.596603644446    3.266633992197    0.903540000000
 H    2.596603644446    3.266633992197   -0.903540000000
 K    0.447543644446    0.229193992197    0.000000000000
 O   -3.201753288396   -1.639664455077    0.000000000000
 C   -2.795504520470   -3.027038966685    0.000000000000
 H   -4.167139178671   -1.595622259862    0.000000000000
 H   -1.695583205685   -3.019095177798    0.000000000000
 H   -3.141096452096   -3.545469613165   -0.903542989118
 H   -3.141096452096   -3.545469613165    0.903542989118
