13

 C    2.361697860184    2.804877001382    0.000000000000
 O    2.767947860184    1.417507001382    0.000000000000
 H    3.733337860184    1.373467001382    0.000000000000
 H    1.261777860184    2.796937001382    0.000000000000
 H    2.707287860184    3.323317001382    0.903540000000
 H    2.707287860184    3.323317001382   -0.903540000000
 K    0.558227860184    0.285877001382    0.000000000000
 O   -3.447098041716   -1.765309099285    0.000000000000
 C   -3.040849273789   -3.152683610892    0.000000000000
 H   -4.412483931990   -1.721266904070    0.000000000000
 H   -1.940927959004   -3.144739822006    0.000000000000
 H   -3.386441205415   -3.671114257372   -0.903542989118
 H   -3.386441205415   -3.671114257372    0.903542989118
