13

 C    2.500053129857    2.875730762864    0.000000000000
 O    2.906303129857    1.488360762864    0.000000000000
 H    3.871693129857    1.444320762864    0.000000000000
 H    1.400133129857    2.867790762864    0.000000000000
 H    2.845643129857    3.394170762864    0.903540000000
 H    2.845643129857    3.394170762864   -0.903540000000
 K    0.696583129857    0.356730762864    0.000000000000
 O   -3.753778983365   -1.922364904545    0.000000000000
 C   -3.347530215438   -3.309739416152    0.000000000000
 H   -4.719164873639   -1.878322709330    0.000000000000
 H   -2.247608900653   -3.301795627266    0.000000000000
 H   -3.693122147064   -3.828170062632   -0.903542989118
 H   -3.693122147064   -3.828170062632    0.903542989118
