13

 C    2.583066291661    2.918243019752    0.000000000000
 O    2.989316291661    1.530873019752    0.000000000000
 H    3.954706291661    1.486833019752    0.000000000000
 H    1.483146291661    2.910303019752    0.000000000000
 H    2.928656291661    3.436683019752    0.903540000000
 H    2.928656291661    3.436683019752   -0.903540000000
 K    0.779596291661    0.399243019752    0.000000000000
 O   -3.937787548354   -2.016598387700    0.000000000000
 C   -3.531538780427   -3.403972899308    0.000000000000
 H   -4.903173438628   -1.972556192485    0.000000000000
 H   -2.431617465643   -3.396029110422    0.000000000000
 H   -3.877130712054   -3.922403545788   -0.903542989118
 H   -3.877130712054   -3.922403545788    0.903542989118
