13

 C    2.693750507400    2.974926028937    0.000000000000
 O    3.100000507400    1.587556028937    0.000000000000
 H    4.065390507400    1.543516028937    0.000000000000
 H    1.593830507400    2.966986028937    0.000000000000
 H    3.039340507400    3.493366028937    0.903540000000
 H    3.039340507400    3.493366028937   -0.903540000000
 K    0.890280507400    0.455926028937    0.000000000000
 O   -4.183132301673   -2.142243031908    0.000000000000
 C   -3.776883533747   -3.529617543516    0.000000000000
 H   -5.148518191948   -2.098200836693    0.000000000000
 H   -2.676962218962   -3.521673754629    0.000000000000
 H   -4.122475465373   -4.048048189996   -0.903542989118
 H   -4.122475465373   -4.048048189996    0.903542989118
