13

 C    2.749092615269    3.003267533530    0.000000000000
 O    3.155342615269    1.615897533530    0.000000000000
 H    4.120732615269    1.571857533530    0.000000000000
 H    1.649172615269    2.995327533530    0.000000000000
 H    3.094682615269    3.521707533530    0.903540000000
 H    3.094682615269    3.521707533530   -0.903540000000
 K    0.945622615269    0.484267533530    0.000000000000
 O   -4.305804678333   -2.205065354012    0.000000000000
 C   -3.899555910406   -3.592439865620    0.000000000000
 H   -5.271190568607   -2.161023158797    0.000000000000
 H   -2.799634595621   -3.584496076733    0.000000000000
 H   -4.245147842033   -4.110870512099   -0.903542989118
 H   -4.245147842033   -4.110870512099    0.903542989118
