13

 C    2.915118938876    3.088292047307    0.000000000000
 O    3.321368938876    1.700922047307    0.000000000000
 H    4.286758938876    1.656882047307    0.000000000000
 H    1.815198938876    3.080352047307    0.000000000000
 H    3.260708938876    3.606732047307    0.903540000000
 H    3.260708938876    3.606732047307   -0.903540000000
 K    1.111648938876    0.569292047307    0.000000000000
 O   -4.673821808312   -2.393532320324    0.000000000000
 C   -4.267573040385   -3.780906831931    0.000000000000
 H   -5.639207698586   -2.349490125109    0.000000000000
 H   -3.167651725600   -3.772963043045    0.000000000000
 H   -4.613164972012   -4.299337478411   -0.903542989118
 H   -4.613164972012   -4.299337478411    0.903542989118
