13

 C    2.970461046746    3.116633551899    0.000000000000
 O    3.376711046746    1.729263551899    0.000000000000
 H    4.342101046746    1.685223551899    0.000000000000
 H    1.870541046746    3.108693551899    0.000000000000
 H    3.316051046746    3.635073551899    0.903540000000
 H    3.316051046746    3.635073551899   -0.903540000000
 K    1.166991046746    0.597633551899    0.000000000000
 O   -4.796494184972   -2.456354642428    0.000000000000
 C   -4.390245417045   -3.843729154035    0.000000000000
 H   -5.761880075246   -2.412312447212    0.000000000000
 H   -3.290324102260   -3.835785365149    0.000000000000
 H   -4.735837348671   -4.362159800515   -0.903542989118
 H   -4.735837348671   -4.362159800515    0.903542989118
