13

 C    3.053474208550    3.159145808788    0.000000000000
 O    3.459724208550    1.771775808788    0.000000000000
 H    4.425114208550    1.727735808788    0.000000000000
 H    1.953554208550    3.151205808788    0.000000000000
 H    3.399064208550    3.677585808788    0.903540000000
 H    3.399064208550    3.677585808788   -0.903540000000
 K    1.250004208550    0.640145808788    0.000000000000
 O   -4.980502749961   -2.550588125583    0.000000000000
 C   -4.574253982034   -3.937962637191    0.000000000000
 H   -5.945888640235   -2.506545930368    0.000000000000
 H   -3.474332667250   -3.930018848305    0.000000000000
 H   -4.919845913661   -4.456393283671   -0.903542989118
 H   -4.919845913661   -4.456393283671    0.903542989118
