13

 C    3.136487370353    3.201658065677    0.000000000000
 O    3.542737370353    1.814288065677    0.000000000000
 H    4.508127370353    1.770248065677    0.000000000000
 H    2.036567370353    3.193718065677    0.000000000000
 H    3.482077370353    3.720098065677    0.903540000000
 H    3.482077370353    3.720098065677   -0.903540000000
 K    1.333017370353    0.682658065677    0.000000000000
 O   -5.164511314951   -2.644821608739    0.000000000000
 C   -4.758262547024   -4.032196120347    0.000000000000
 H   -6.129897205225   -2.600779413524    0.000000000000
 H   -3.658341232239   -4.024252331460    0.000000000000
 H   -5.103854478650   -4.550626766826   -0.903542989118
 H   -5.103854478650   -4.550626766826    0.903542989118
