13

 C    3.219500532157    3.244170322566    0.000000000000
 O    3.625750532157    1.856800322566    0.000000000000
 H    4.591140532157    1.812760322566    0.000000000000
 H    2.119580532157    3.236230322566    0.000000000000
 H    3.565090532157    3.762610322566    0.903540000000
 H    3.565090532157    3.762610322566   -0.903540000000
 K    1.416030532157    0.725170322566    0.000000000000
 O   -5.348519879940   -2.739055091895    0.000000000000
 C   -4.942271112013   -4.126429603502    0.000000000000
 H   -6.313905770214   -2.695012896680    0.000000000000
 H   -3.842349797228   -4.118485814616    0.000000000000
 H   -5.287863043640   -4.644860249982   -0.903542989118
 H   -5.287863043640   -4.644860249982    0.903542989118
