13

 C    3.247171586092    3.258341074862    0.000000000000
 O    3.653421586092    1.870971074862    0.000000000000
 H    4.618811586092    1.826931074862    0.000000000000
 H    2.147251586092    3.250401074862    0.000000000000
 H    3.592761586092    3.776781074862    0.903540000000
 H    3.592761586092    3.776781074862   -0.903540000000
 K    1.443701586092    0.739341074862    0.000000000000
 O   -5.409856068270   -2.770466252947    0.000000000000
 C   -5.003607300343   -4.157840764554    0.000000000000
 H   -6.375241958544   -2.726424057732    0.000000000000
 H   -3.903685985558   -4.149896975668    0.000000000000
 H   -5.349199231970   -4.676271411034   -0.903542989118
 H   -5.349199231970   -4.676271411034    0.903542989118
