13

 C    3.357855801830    3.315024084047    0.000000000000
 O    3.764105801830    1.927654084047    0.000000000000
 H    4.729495801830    1.883614084047    0.000000000000
 H    2.257935801830    3.307084084047    0.000000000000
 H    3.703445801830    3.833464084047    0.903540000000
 H    3.703445801830    3.833464084047   -0.903540000000
 K    1.554385801830    0.796024084047    0.000000000000
 O   -5.655200821589   -2.896110897155    0.000000000000
 C   -5.248952053662   -4.283485408762    0.000000000000
 H   -6.620586711863   -2.852068701940    0.000000000000
 H   -4.149030738878   -4.275541619876    0.000000000000
 H   -5.594543985289   -4.801916055242   -0.903542989118
 H   -5.594543985289   -4.801916055242    0.903542989118
