13

 C    3.385526855765    3.329194836343    0.000000000000
 O    3.791776855765    1.941824836343    0.000000000000
 H    4.757166855765    1.897784836343    0.000000000000
 H    2.285606855765    3.321254836343    0.000000000000
 H    3.731116855765    3.847634836343    0.903540000000
 H    3.731116855765    3.847634836343   -0.903540000000
 K    1.582056855765    0.810194836343    0.000000000000
 O   -5.716537009919   -2.927522058207    0.000000000000
 C   -5.310288241992   -4.314896569814    0.000000000000
 H   -6.681922900193   -2.883479862991    0.000000000000
 H   -4.210366927207   -4.306952780928    0.000000000000
 H   -5.655880173619   -4.833327216294   -0.903542989118
 H   -5.655880173619   -4.833327216294    0.903542989118
