13

 C    3.413197909700    3.343365588639    0.000000000000
 O    3.819447909700    1.955995588639    0.000000000000
 H    4.784837909700    1.911955588639    0.000000000000
 H    2.313277909700    3.335425588639    0.000000000000
 H    3.758787909700    3.861805588639    0.903540000000
 H    3.758787909700    3.861805588639   -0.903540000000
 K    1.609727909700    0.824365588639    0.000000000000
 O   -5.777873198249   -2.958933219258    0.000000000000
 C   -5.371624430322   -4.346307730866    0.000000000000
 H   -6.743259088523   -2.914891024043    0.000000000000
 H   -4.271703115537   -4.338363941980    0.000000000000
 H   -5.717216361949   -4.864738377346   -0.903542989118
 H   -5.717216361949   -4.864738377346    0.903542989118
