13

 C    3.440868963634    3.357536340935    0.000000000000
 O    3.847118963634    1.970166340935    0.000000000000
 H    4.812508963634    1.926126340935    0.000000000000
 H    2.340948963634    3.349596340935    0.000000000000
 H    3.786458963634    3.875976340935    0.903540000000
 H    3.786458963634    3.875976340935   -0.903540000000
 K    1.637398963634    0.838536340935    0.000000000000
 O   -5.839209386579   -2.990344380310    0.000000000000
 C   -5.432960618652   -4.377718891918    0.000000000000
 H   -6.804595276853   -2.946302185095    0.000000000000
 H   -4.333039303867   -4.369775103032    0.000000000000
 H   -5.778552550278   -4.896149538398   -0.903542989118
 H   -5.778552550278   -4.896149538398    0.903542989118
