13

 C    3.468540017569    3.371707093232    0.000000000000
 O    3.874790017569    1.984337093232    0.000000000000
 H    4.840180017569    1.940297093232    0.000000000000
 H    2.368620017569    3.363767093232    0.000000000000
 H    3.814130017569    3.890147093232    0.903540000000
 H    3.814130017569    3.890147093232   -0.903540000000
 K    1.665070017569    0.852707093232    0.000000000000
 O   -5.900545574908   -3.021755541362    0.000000000000
 C   -5.494296806982   -4.409130052970    0.000000000000
 H   -6.865931465183   -2.977713346147    0.000000000000
 H   -4.394375492197   -4.401186264084    0.000000000000
 H   -5.839888738608   -4.927560699450   -0.903542989118
 H   -5.839888738608   -4.927560699450    0.903542989118
