13

 C    3.523882125438    3.400048597824    0.000000000000
 O    3.930132125438    2.012678597824    0.000000000000
 H    4.895522125438    1.968638597824    0.000000000000
 H    2.423962125438    3.392108597824    0.000000000000
 H    3.869472125438    3.918488597824    0.903540000000
 H    3.869472125438    3.918488597824   -0.903540000000
 K    1.720412125438    0.881048597824    0.000000000000
 O   -6.023217951568   -3.084577863466    0.000000000000
 C   -5.616969183641   -4.471952375074    0.000000000000
 H   -6.988603841842   -3.040535668251    0.000000000000
 H   -4.517047868856   -4.464008586187    0.000000000000
 H   -5.962561115268   -4.990383021554   -0.903542989118
 H   -5.962561115268   -4.990383021554    0.903542989118
