13

 C    3.717579502980    3.499243863898    0.000000000000
 O    4.123829502980    2.111873863898    0.000000000000
 H    5.089219502980    2.067833863898    0.000000000000
 H    2.617659502980    3.491303863898    0.000000000000
 H    4.063169502980    4.017683863898    0.903540000000
 H    4.063169502980    4.017683863898   -0.903540000000
 K    1.914109502980    0.980243863898    0.000000000000
 O   -6.452571269877   -3.304455990830    0.000000000000
 C   -6.046322501950   -4.691830502437    0.000000000000
 H   -7.417957160151   -3.260413795615    0.000000000000
 H   -4.946401187165   -4.683886713551    0.000000000000
 H   -6.391914433577   -5.210261148917   -0.903542989118
 H   -6.391914433577   -5.210261148917    0.903542989118
