13

 C    3.772921610850    3.527585368490    0.000000000000
 O    4.179171610850    2.140215368490    0.000000000000
 H    5.144561610850    2.096175368490    0.000000000000
 H    2.673001610850    3.519645368490    0.000000000000
 H    4.118511610850    4.046025368490    0.903540000000
 H    4.118511610850    4.046025368490   -0.903540000000
 K    1.969451610850    1.008585368490    0.000000000000
 O   -6.575243646537   -3.367278312934    0.000000000000
 C   -6.168994878610   -4.754652824541    0.000000000000
 H   -7.540629536811   -3.323236117719    0.000000000000
 H   -5.069073563825   -4.746709035655    0.000000000000
 H   -6.514586810236   -5.273083471021   -0.903542989118
 H   -6.514586810236   -5.273083471021    0.903542989118
