13

 C    3.800592664784    3.541756120786    0.000000000000
 O    4.206842664784    2.154386120786    0.000000000000
 H    5.172232664784    2.110346120786    0.000000000000
 H    2.700672664784    3.533816120786    0.000000000000
 H    4.146182664784    4.060196120786    0.903540000000
 H    4.146182664784    4.060196120786   -0.903540000000
 K    1.997122664784    1.022756120786    0.000000000000
 O   -6.636579834866   -3.398689473986    0.000000000000
 C   -6.230331066940   -4.786063985593    0.000000000000
 H   -7.601965725141   -3.354647278770    0.000000000000
 H   -5.130409752155   -4.778120196707    0.000000000000
 H   -6.575922998566   -5.304494632073   -0.903542989118
 H   -6.575922998566   -5.304494632073    0.903542989118
