14

 P   -0.045854377801   -0.087696404400   -0.693986070357
 O   -0.632854377801    0.962303595600    0.261013929643
 O   -0.311854377801   -0.039696404400   -2.205986070357
 O    1.617145622199   -0.261696404400   -0.406986070357
 O   -0.360854377801   -1.645696404400   -0.101986070357
 C    2.354145622199    0.903303595600   -0.783986070357
 H    2.023145622199    1.786303595600   -0.207986070357
 H    2.239145622199    1.114303595600   -1.861986070357
 H    3.414145622199    0.701303595600   -0.563986070357
 C   -1.751854377801   -1.968696404400   -0.151986070357
 H   -2.129854377801   -1.941696404400   -1.189986070357
 H   -2.344854377801   -1.269696404400    0.464013929643
 H   -1.861854377801   -2.988696404400    0.248013929643
 K   -0.311605517972    0.869298006951    1.927791998415
