14

 P   -0.050344976308   -0.086396319607   -0.717285238212
 O   -0.637344976308    0.963603680393    0.237714761788
 O   -0.316344976308   -0.038396319607   -2.229285238212
 O    1.612655023692   -0.260396319607   -0.430285238212
 O   -0.365344976308   -1.644396319607   -0.125285238212
 C    2.349655023692    0.904603680393   -0.807285238212
 H    2.018655023692    1.787603680393   -0.231285238212
 H    2.234655023692    1.115603680393   -1.885285238212
 H    3.409655023692    0.702603680393   -0.587285238212
 C   -1.756344976308   -1.967396319607   -0.175285238212
 H   -2.134344976308   -1.940396319607   -1.213285238212
 H   -2.349344976308   -1.268396319607    0.440714761788
 H   -1.866344976308   -2.987396319607    0.224714761788
 K   -0.297199124725    0.865127174765    2.002538599311
