14

 P   -0.059326173324   -0.083796150020   -0.763883573922
 O   -0.646326173324    0.966203849980    0.191116426078
 O   -0.325326173324   -0.035796150020   -2.275883573922
 O    1.603673826676   -0.257796150020   -0.476883573922
 O   -0.374326173324   -1.641796150020   -0.171883573922
 C    2.340673826676    0.907203849980   -0.853883573922
 H    2.009673826676    1.790203849980   -0.277883573922
 H    2.225673826676    1.118203849980   -1.931883573922
 H    3.400673826676    0.705203849980   -0.633883573922
 C   -1.765326173324   -1.964796150020   -0.221883573922
 H   -2.143326173324   -1.937796150020   -1.259883573922
 H   -2.358326173324   -1.265796150020    0.394116426078
 H   -1.875326173324   -2.984796150020    0.178116426078
 K   -0.268386338231    0.856785510394    2.152031801104
