14

 P   -0.072797968847   -0.079895895639   -0.833781077487
 O   -0.659797968847    0.970104104361    0.121218922513
 O   -0.338797968847   -0.031895895639   -2.345781077487
 O    1.590202031153   -0.253895895639   -0.546781077487
 O   -0.387797968847   -1.637895895639   -0.241781077487
 C    2.327202031153    0.911104104361   -0.923781077487
 H    1.996202031153    1.794104104361   -0.347781077487
 H    2.212202031153    1.122104104361   -2.001781077487
 H    3.387202031153    0.709104104361   -0.703781077487
 C   -1.778797968847   -1.960895895639   -0.291781077487
 H   -2.156797968847   -1.933895895639   -1.329781077487
 H   -2.371797968847   -1.261895895639    0.324218922513
 H   -1.888797968847   -2.980895895639    0.108218922513
 K   -0.225167158491    0.844273013836    2.376271603793
