14

 P   -0.086269764370   -0.075995641259   -0.903678581052
 O   -0.673269764370    0.974004358741    0.051321418948
 O   -0.352269764370   -0.027995641259   -2.415678581052
 O    1.576730235630   -0.249995641259   -0.616678581052
 O   -0.401269764370   -1.633995641259   -0.311678581052
 C    2.313730235630    0.915004358741   -0.993678581052
 H    1.982730235630    1.798004358741   -0.417678581052
 H    2.198730235630    1.126004358741   -2.071678581052
 H    3.373730235630    0.713004358741   -0.773678581052
 C   -1.792269764370   -1.956995641259   -0.361678581052
 H   -2.170269764370   -1.929995641259   -1.399678581052
 H   -2.385269764370   -1.257995641259    0.254321418948
 H   -1.902269764370   -2.976995641259    0.038321418948
 K   -0.181947978750    0.831760517279    2.600511406482
