14

 P   -0.104232158401   -0.070795302084   -0.996875252472
 O   -0.691232158401    0.979204697916   -0.041875252472
 O   -0.370232158401   -0.022795302084   -2.508875252472
 O    1.558767841599   -0.244795302084   -0.709875252472
 O   -0.419232158401   -1.628795302084   -0.404875252472
 C    2.295767841599    0.920204697916   -1.086875252472
 H    1.964767841599    1.803204697916   -0.510875252472
 H    2.180767841599    1.131204697916   -2.164875252472
 H    3.355767841599    0.718204697916   -0.866875252472
 C   -1.810232158401   -1.951795302084   -0.454875252472
 H   -2.188232158401   -1.924795302084   -1.492875252472
 H   -2.403232158401   -1.252795302084    0.161124747528
 H   -1.920232158401   -2.971795302084   -0.054875252472
 K   -0.124322405763    0.815077188535    2.899497810067
