14

 P   -0.117703953925   -0.066895047704   -1.066772756037
 O   -0.704703953925    0.983104952296   -0.111772756037
 O   -0.383703953925   -0.018895047704   -2.578772756037
 O    1.545296046075   -0.240895047704   -0.779772756037
 O   -0.432703953925   -1.624895047704   -0.474772756037
 C    2.282296046075    0.924104952296   -1.156772756037
 H    1.951296046075    1.807104952296   -0.580772756037
 H    2.167296046075    1.135104952296   -2.234772756037
 H    3.342296046075    0.722104952296   -0.936772756037
 C   -1.823703953925   -1.947895047704   -0.524772756037
 H   -2.201703953925   -1.920895047704   -1.562772756037
 H   -2.416703953925   -1.248895047704    0.091227243963
 H   -1.933703953925   -2.967895047704   -0.124772756037
 K   -0.081103226022    0.802564691978    3.123737612756
