14

 P   -0.122194552432   -0.065594962910   -1.090071923892
 O   -0.709194552432    0.984405037090   -0.135071923892
 O   -0.388194552432   -0.017594962910   -2.602071923892
 O    1.540805447568   -0.239594962910   -0.803071923892
 O   -0.437194552432   -1.623594962910   -0.498071923892
 C    2.277805447568    0.925405037090   -1.180071923892
 H    1.946805447568    1.808405037090   -0.604071923892
 H    2.162805447568    1.136405037090   -2.258071923892
 H    3.337805447568    0.723405037090   -0.960071923892
 C   -1.828194552432   -1.946594962910   -0.548071923892
 H   -2.206194552432   -1.919594962910   -1.586071923892
 H   -2.421194552432   -1.247594962910    0.067928076108
 H   -1.938194552432   -2.966594962910   -0.148071923892
 K   -0.066696832775    0.798393859792    3.198484213652
