14

 P   -0.126685150940   -0.064294878117   -1.113371091747
 O   -0.713685150940    0.985705121883   -0.158371091747
 O   -0.392685150940   -0.016294878117   -2.625371091747
 O    1.536314849060   -0.238294878117   -0.826371091747
 O   -0.441685150940   -1.622294878117   -0.521371091747
 C    2.273314849060    0.926705121883   -1.203371091747
 H    1.942314849060    1.809705121883   -0.627371091747
 H    2.158314849060    1.137705121883   -2.281371091747
 H    3.333314849060    0.724705121883   -0.983371091747
 C   -1.832685150940   -1.945294878117   -0.571371091747
 H   -2.210685150940   -1.918294878117   -1.609371091747
 H   -2.425685150940   -1.246294878117    0.044628908253
 H   -1.942685150940   -2.965294878117   -0.171371091747
 K   -0.052290439528    0.794223027606    3.273230814548
