14

 P   -0.131175749448   -0.062994793323   -1.136670259602
 O   -0.718175749448    0.987005206677   -0.181670259602
 O   -0.397175749448   -0.014994793323   -2.648670259602
 O    1.531824250552   -0.236994793323   -0.849670259602
 O   -0.446175749448   -1.620994793323   -0.544670259602
 C    2.268824250552    0.928005206677   -1.226670259602
 H    1.937824250552    1.811005206677   -0.650670259602
 H    2.153824250552    1.139005206677   -2.304670259602
 H    3.328824250552    0.726005206677   -1.006670259602
 C   -1.837175749448   -1.943994793323   -0.594670259602
 H   -2.215175749448   -1.916994793323   -1.632670259602
 H   -2.430175749448   -1.244994793323    0.021329740398
 H   -1.947175749448   -2.963994793323   -0.194670259602
 K   -0.037884046281    0.790052195420    3.347977415445
