14

 P   -0.149138143479   -0.057794454149   -1.229866931022
 O   -0.736138143479    0.992205545851   -0.274866931022
 O   -0.415138143479   -0.009794454149   -2.741866931022
 O    1.513861856521   -0.231794454149   -0.942866931022
 O   -0.464138143479   -1.615794454149   -0.637866931022
 C    2.250861856521    0.933205545851   -1.319866931022
 H    1.919861856521    1.816205545851   -0.743866931022
 H    2.135861856521    1.144205545851   -2.397866931022
 H    3.310861856521    0.731205545851   -1.099866931022
 C   -1.855138143479   -1.938794454149   -0.687866931022
 H   -2.233138143479   -1.911794454149   -1.725866931022
 H   -2.448138143479   -1.239794454149   -0.071866931022
 H   -1.965138143479   -2.958794454149   -0.287866931022
 K    0.019741526706    0.773368866677    3.646963819030
