14

 P   -0.167100537510   -0.052594114975   -1.323063602442
 O   -0.754100537510    0.997405885025   -0.368063602442
 O   -0.433100537510   -0.004594114975   -2.835063602442
 O    1.495899462490   -0.226594114975   -1.036063602442
 O   -0.482100537510   -1.610594114975   -0.731063602442
 C    2.232899462490    0.938405885025   -1.413063602442
 H    1.901899462490    1.821405885025   -0.837063602442
 H    2.117899462490    1.149405885025   -2.491063602442
 H    3.292899462490    0.736405885025   -1.193063602442
 C   -1.873100537510   -1.933594114975   -0.781063602442
 H   -2.251100537510   -1.906594114975   -1.819063602442
 H   -2.466100537510   -1.234594114975   -0.165063602442
 H   -1.983100537510   -2.953594114975   -0.381063602442
 K    0.077367099694    0.756685537934    3.945950222615
