14

 P   -0.180572333033   -0.048693860595   -1.392961106007
 O   -0.767572333033    1.001306139405   -0.437961106007
 O   -0.446572333033   -0.000693860595   -2.904961106007
 O    1.482427666967   -0.222693860595   -1.105961106007
 O   -0.495572333033   -1.606693860595   -0.800961106007
 C    2.219427666967    0.942306139405   -1.482961106007
 H    1.888427666967    1.825306139405   -0.906961106007
 H    2.104427666967    1.153306139405   -2.560961106007
 H    3.279427666967    0.740306139405   -1.262961106007
 C   -1.886572333033   -1.929693860595   -0.850961106007
 H   -2.264572333033   -1.902693860595   -1.888961106007
 H   -2.479572333033   -1.230693860595   -0.234961106007
 H   -1.996572333033   -2.949693860595   -0.450961106007
 K    0.120586279434    0.744173041376    4.170190025304
