14

 P   -0.189553530049   -0.046093691008   -1.439559441717
 O   -0.776553530049    1.003906308992   -0.484559441717
 O   -0.455553530049    0.001906308992   -2.951559441717
 O    1.473446469951   -0.220093691008   -1.152559441717
 O   -0.504553530049   -1.604093691008   -0.847559441717
 C    2.210446469951    0.944906308992   -1.529559441717
 H    1.879446469951    1.827906308992   -0.953559441717
 H    2.095446469951    1.155906308992   -2.607559441717
 H    3.270446469951    0.742906308992   -1.309559441717
 C   -1.895553530049   -1.927093691008   -0.897559441717
 H   -2.273553530049   -1.900093691008   -1.935559441717
 H   -2.488553530049   -1.228093691008   -0.281559441717
 H   -2.005553530049   -2.947093691008   -0.497559441717
 K    0.149399065928    0.735831377005    4.319683227096
