14

 P   -0.198534727064   -0.043493521421   -1.486157777427
 O   -0.785534727064    1.006506478579   -0.531157777427
 O   -0.464534727064    0.004506478579   -2.998157777427
 O    1.464465272936   -0.217493521421   -1.199157777427
 O   -0.513534727064   -1.601493521421   -0.894157777427
 C    2.201465272936    0.947506478579   -1.576157777427
 H    1.870465272936    1.830506478579   -1.000157777427
 H    2.086465272936    1.158506478579   -2.654157777427
 H    3.261465272936    0.745506478579   -1.356157777427
 C   -1.904534727064   -1.924493521421   -0.944157777427
 H   -2.282534727064   -1.897493521421   -1.982157777427
 H   -2.497534727064   -1.225493521421   -0.328157777427
 H   -2.014534727064   -2.944493521421   -0.544157777427
 K    0.178211852422    0.727489712633    4.469176428889
