14

 P   -0.212006522587   -0.039593267040   -1.556055280992
 O   -0.799006522587    1.010406732960   -0.601055280992
 O   -0.478006522587    0.008406732960   -3.068055280992
 O    1.450993477413   -0.213593267040   -1.269055280992
 O   -0.527006522587   -1.597593267040   -0.964055280992
 C    2.187993477413    0.951406732960   -1.646055280992
 H    1.856993477413    1.834406732960   -1.070055280992
 H    2.072993477413    1.162406732960   -2.724055280992
 H    3.247993477413    0.749406732960   -1.426055280992
 C   -1.918006522587   -1.920593267040   -1.014055280992
 H   -2.296006522587   -1.893593267040   -2.052055280992
 H   -2.511006522587   -1.221593267040   -0.398055280992
 H   -2.028006522587   -2.940593267040   -0.614055280992
 K    0.221431032162    0.714977216076    4.693416231578
