14

 P   -0.216497121095   -0.038293182247   -1.579354448847
 O   -0.803497121095    1.011706817753   -0.624354448847
 O   -0.482497121095    0.009706817753   -3.091354448847
 O    1.446502878905   -0.212293182247   -1.292354448847
 O   -0.531497121095   -1.596293182247   -0.987354448847
 C    2.183502878905    0.952706817753   -1.669354448847
 H    1.852502878905    1.835706817753   -1.093354448847
 H    2.068502878905    1.163706817753   -2.747354448847
 H    3.243502878905    0.750706817753   -1.449354448847
 C   -1.922497121095   -1.919293182247   -1.037354448847
 H   -2.300497121095   -1.892293182247   -2.075354448847
 H   -2.515497121095   -1.220293182247   -0.421354448847
 H   -2.032497121095   -2.939293182247   -0.637354448847
 K    0.235837425409    0.710806383890    4.768162832474
