14

 P   -0.229968916618   -0.034392927866   -1.649251952412
 O   -0.816968916618    1.015607072134   -0.694251952412
 O   -0.495968916618    0.013607072134   -3.161251952412
 O    1.433031083382   -0.208392927866   -1.362251952412
 O   -0.544968916618   -1.592392927866   -1.057251952412
 C    2.170031083382    0.956607072134   -1.739251952412
 H    1.839031083382    1.839607072134   -1.163251952412
 H    2.055031083382    1.167607072134   -2.817251952412
 H    3.230031083382    0.754607072134   -1.519251952412
 C   -1.935968916618   -1.915392927866   -1.107251952412
 H   -2.313968916618   -1.888392927866   -2.145251952412
 H   -2.528968916618   -1.216392927866   -0.491251952412
 H   -2.045968916618   -2.935392927866   -0.707251952412
 K    0.279056605150    0.698293887332    4.992402635163
