14

 P   -0.243440712142   -0.030492673485   -1.719149455977
 O   -0.830440712142    1.019507326515   -0.764149455977
 O   -0.509440712142    0.017507326515   -3.231149455977
 O    1.419559287858   -0.204492673485   -1.432149455977
 O   -0.558440712142   -1.588492673485   -1.127149455977
 C    2.156559287858    0.960507326515   -1.809149455977
 H    1.825559287858    1.843507326515   -1.233149455977
 H    2.041559287858    1.171507326515   -2.887149455977
 H    3.216559287858    0.758507326515   -1.589149455977
 C   -1.949440712142   -1.911492673485   -1.177149455977
 H   -2.327440712142   -1.884492673485   -2.215149455977
 H   -2.542440712142   -1.212492673485   -0.561149455977
 H   -2.059440712142   -2.931492673485   -0.777149455977
 K    0.322275784890    0.685781390775    5.216642437852
