14

 P   -0.265893704680   -0.023992249518   -1.835645295252
 O   -0.852893704680    1.026007750482   -0.880645295252
 O   -0.531893704680    0.024007750482   -3.347645295252
 O    1.397106295320   -0.197992249518   -1.548645295252
 O   -0.580893704680   -1.581992249518   -1.243645295252
 C    2.134106295320    0.967007750482   -1.925645295252
 H    1.803106295320    1.850007750482   -1.349645295252
 H    2.019106295320    1.178007750482   -3.003645295252
 H    3.194106295320    0.765007750482   -1.705645295252
 C   -1.971893704680   -1.904992249518   -1.293645295252
 H   -2.349893704680   -1.877992249518   -2.331645295252
 H   -2.564893704680   -1.205992249518   -0.677645295252
 H   -2.081893704680   -2.924992249518   -0.893645295252
 K    0.394307751125    0.664927229846    5.590375442333
