14

 P   -0.274874901696   -0.021392079931   -1.882243630962
 O   -0.861874901696    1.028607920069   -0.927243630962
 O   -0.540874901696    0.026607920069   -3.394243630962
 O    1.388125098304   -0.195392079931   -1.595243630962
 O   -0.589874901696   -1.579392079931   -1.290243630962
 C    2.125125098304    0.969607920069   -1.972243630962
 H    1.794125098304    1.852607920069   -1.396243630962
 H    2.010125098304    1.180607920069   -3.050243630962
 H    3.185125098304    0.767607920069   -1.752243630962
 C   -1.980874901696   -1.902392079931   -1.340243630962
 H   -2.358874901696   -1.875392079931   -2.378243630962
 H   -2.573874901696   -1.203392079931   -0.724243630962
 H   -2.090874901696   -2.922392079931   -0.940243630962
 K    0.423120537619    0.656585565474    5.739868644126
