14

 P   -0.279365500204   -0.020091995137   -1.905542798817
 O   -0.866365500204    1.029908004863   -0.950542798817
 O   -0.545365500204    0.027908004863   -3.417542798817
 O    1.383634499796   -0.194091995137   -1.618542798817
 O   -0.594365500204   -1.578091995137   -1.313542798817
 C    2.120634499796    0.970908004863   -1.995542798817
 H    1.789634499796    1.853908004863   -1.419542798817
 H    2.005634499796    1.181908004863   -3.073542798817
 H    3.180634499796    0.768908004863   -1.775542798817
 C   -1.985365500204   -1.901091995137   -1.363542798817
 H   -2.363365500204   -1.874091995137   -2.401542798817
 H   -2.578365500204   -1.202091995137   -0.747542798817
 H   -2.095365500204   -2.921091995137   -0.963542798817
 K    0.437526930865    0.652414733288    5.814615245022
