14

 P   -0.297327894235   -0.014891655963   -1.998739470237
 O   -0.884327894235    1.035108344037   -1.043739470237
 O   -0.563327894235    0.033108344037   -3.510739470237
 O    1.365672105765   -0.188891655963   -1.711739470237
 O   -0.612327894235   -1.572891655963   -1.406739470237
 C    2.102672105765    0.976108344037   -2.088739470237
 H    1.771672105765    1.859108344037   -1.512739470237
 H    1.987672105765    1.187108344037   -3.166739470237
 H    3.162672105765    0.774108344037   -1.868739470237
 C   -2.003327894235   -1.895891655963   -1.456739470237
 H   -2.381327894235   -1.868891655963   -2.494739470237
 H   -2.596327894235   -1.196891655963   -0.840739470237
 H   -2.113327894235   -2.915891655963   -1.056739470237
 K    0.495152503853    0.635731404545    6.113601648607
