14

 P   -0.324271485281   -0.007091147202   -2.138534477367
 O   -0.911271485281    1.042908852798   -1.183534477367
 O   -0.590271485281    0.040908852798   -3.650534477367
 O    1.338728514719   -0.181091147202   -1.851534477367
 O   -0.639271485281   -1.565091147202   -1.546534477367
 C    2.075728514719    0.983908852798   -2.228534477367
 H    1.744728514719    1.866908852798   -1.652534477367
 H    1.960728514719    1.194908852798   -3.306534477367
 H    3.135728514719    0.781908852798   -2.008534477367
 C   -2.030271485281   -1.888091147202   -1.596534477367
 H   -2.408271485281   -1.861091147202   -2.634534477367
 H   -2.623271485281   -1.189091147202   -0.980534477367
 H   -2.140271485281   -2.908091147202   -1.196534477367
 K    0.581590863334    0.610706411430    6.562081253985
