14

 P   -0.328762083789   -0.005791062409   -2.161833645222
 O   -0.915762083789    1.044208937591   -1.206833645222
 O   -0.594762083789    0.042208937591   -3.673833645222
 O    1.334237916211   -0.179791062409   -1.874833645222
 O   -0.643762083789   -1.563791062409   -1.569833645222
 C    2.071237916211    0.985208937591   -2.251833645222
 H    1.740237916211    1.868208937591   -1.675833645222
 H    1.956237916211    1.196208937591   -3.329833645222
 H    3.131237916211    0.783208937591   -2.031833645222
 C   -2.034762083789   -1.886791062409   -1.619833645222
 H   -2.412762083789   -1.859791062409   -2.657833645222
 H   -2.627762083789   -1.187791062409   -1.003833645222
 H   -2.144762083789   -2.906791062409   -1.219833645222
 K    0.595997256581    0.606535579244    6.636827854881
