14

 P   -0.351215076328    0.000709361559   -2.278329484497
 O   -0.938215076328    1.050709361559   -1.323329484497
 O   -0.617215076328    0.048709361559   -3.790329484497
 O    1.311784923672   -0.173290638441   -1.991329484497
 O   -0.666215076328   -1.557290638441   -1.686329484497
 C    2.048784923672    0.991709361559   -2.368329484497
 H    1.717784923672    1.874709361559   -1.792329484497
 H    1.933784923672    1.202709361559   -3.446329484497
 H    3.108784923672    0.789709361559   -2.148329484497
 C   -2.057215076328   -1.880290638441   -1.736329484497
 H   -2.435215076328   -1.853290638441   -2.774329484497
 H   -2.650215076328   -1.181290638441   -1.120329484497
 H   -2.167215076328   -2.900290638441   -1.336329484497
 K    0.668029222816    0.585681418315    7.010560859363
