14

 P   -0.355705674835    0.002009446353   -2.301628652352
 O   -0.942705674835    1.052009446353   -1.346628652352
 O   -0.621705674835    0.050009446353   -3.813628652352
 O    1.307294325165   -0.171990553647   -2.014628652352
 O   -0.670705674835   -1.555990553647   -1.709628652352
 C    2.044294325165    0.993009446353   -2.391628652352
 H    1.713294325165    1.876009446353   -1.815628652352
 H    1.929294325165    1.204009446353   -3.469628652352
 H    3.104294325165    0.791009446353   -2.171628652352
 C   -2.061705674835   -1.878990553647   -1.759628652352
 H   -2.439705674835   -1.851990553647   -2.797628652352
 H   -2.654705674835   -1.179990553647   -1.143628652352
 H   -2.171705674835   -2.898990553647   -1.359628652352
 K    0.682435616062    0.581510586129    7.085307460259
