14

 P   -0.391630462897    0.012410124701   -2.488021995192
 O   -0.978630462897    1.062410124701   -1.533021995192
 O   -0.657630462897    0.060410124701   -4.000021995192
 O    1.271369537103   -0.161589875299   -2.201021995192
 O   -0.706630462897   -1.545589875299   -1.896021995192
 C    2.008369537103    1.003410124701   -2.578021995192
 H    1.677369537103    1.886410124701   -2.002021995192
 H    1.893369537103    1.214410124701   -3.656021995192
 H    3.068369537103    0.801410124701   -2.358021995192
 C   -2.097630462897   -1.868589875299   -1.946021995192
 H   -2.475630462897   -1.841589875299   -2.984021995192
 H   -2.690630462897   -1.169589875299   -1.330021995192
 H   -2.207630462897   -2.888589875299   -1.546021995192
 K    0.797686762037    0.548143928643    7.683280267429
