14

 P   -0.396121061405    0.013710209494   -2.511321163047
 O   -0.983121061405    1.063710209494   -1.556321163047
 O   -0.662121061405    0.061710209494   -4.023321163047
 O    1.266878938595   -0.160289790506   -2.224321163047
 O   -0.711121061405   -1.544289790506   -1.919321163047
 C    2.003878938595    1.004710209494   -2.601321163047
 H    1.672878938595    1.887710209494   -2.025321163047
 H    1.888878938595    1.215710209494   -3.679321163047
 H    3.063878938595    0.802710209494   -2.381321163047
 C   -2.102121061405   -1.867289790506   -1.969321163047
 H   -2.480121061405   -1.840289790506   -3.007321163047
 H   -2.695121061405   -1.168289790506   -1.353321163047
 H   -2.212121061405   -2.887289790506   -1.569321163047
 K    0.812093155284    0.543973096457    7.758026868326
