14

 P   -0.414083455436    0.018910548668   -2.604517834467
 O   -1.001083455436    1.068910548668   -1.649517834467
 O   -0.680083455436    0.066910548668   -4.116517834467
 O    1.248916544564   -0.155089451332   -2.317517834467
 O   -0.729083455436   -1.539089451332   -2.012517834467
 C    1.985916544564    1.009910548668   -2.694517834467
 H    1.654916544564    1.892910548668   -2.118517834467
 H    1.870916544564    1.220910548668   -3.772517834467
 H    3.045916544564    0.807910548668   -2.474517834467
 C   -2.120083455436   -1.862089451332   -2.062517834467
 H   -2.498083455436   -1.835089451332   -3.100517834467
 H   -2.713083455436   -1.163089451332   -1.446517834467
 H   -2.230083455436   -2.882089451332   -1.662517834467
 K    0.869718728272    0.527289767714    8.057013271911
