27

 P   -1.482533594515    1.589203408107   -0.790199025953
 O   -2.115643594515    2.550263408107    0.208770974047
 O   -1.756203594515    1.604693408107   -2.289339025953
 O    0.205426405485    1.511453408107   -0.521089025953
 O   -1.609773594515   -0.011956591893   -0.200779025953
 C    0.895096405485    2.711293408107   -0.895699025953
 H    0.529926405485    3.563473408107   -0.301989025953
 H    0.749816405485    2.917213408107   -1.967319025953
 H    1.962626405485    2.551693408107   -0.692339025953
 C   -2.957303594515   -0.501996591893   -0.183189025953
 H   -3.374753594515   -0.511546591893   -1.202019025953
 H   -3.584633594515    0.126853408107    0.467270974047
 H   -2.928033594515   -1.526486591893    0.211670974047
NA    0.548286405485   -0.587736591893    0.292240974047
 P    1.381692474077   -1.481107253478    0.736451718912
 O   -0.306263139368   -1.403360636691    0.467343576675
 O    1.508936073542    0.120050054438    0.147028250342
 O    2.014802434039   -2.442174413626   -0.262520400209
 O    1.655361428995   -1.496597193023    2.235588432153
 C   -0.995937939093   -2.603192768876    0.841954358820
 H   -0.630764496229   -3.455384306913    0.248248351839
 H   -0.850656444078   -2.809115751235    1.913580110724
 H   -2.063465814835   -2.443599977289    0.638599988845
 C    2.856468933908    0.610095378131    0.129438157637
 H    3.273915647930    0.619641017184    1.148262120168
 H    3.483797187582   -0.018754140978   -0.521022023280
 H    2.827195167407    1.634584268305   -0.265424243847
