27

 P   -1.776080195641    1.903871048693   -0.946661234776
 O   -2.409190195641    2.864931048693    0.052308765224
 O   -2.049750195641    1.919361048693   -2.445801234776
 O   -0.088120195641    1.826121048693   -0.677551234776
 O   -1.903320195641    0.302711048693   -0.357241234776
 C    0.601549804359    3.025961048693   -1.052161234776
 H    0.236379804359    3.878141048693   -0.458451234776
 H    0.456269804359    3.231881048693   -2.123781234776
 H    1.669079804359    2.866361048693   -0.848801234776
 C   -3.250850195641   -0.187328951307   -0.339651234776
 H   -3.668300195641   -0.196878951307   -1.358481234776
 H   -3.878180195641    0.441521048693    0.310808765224
 H   -3.221580195641   -1.211818951307    0.055208765224
NA    0.254739804359   -0.273068951307    0.135778765224
 P    1.729227464175   -1.853647814111    0.921690083062
 O    0.041271850731   -1.775901197324    0.652581940825
 O    1.856471063641   -0.252490506195    0.332266614491
 O    2.362337424137   -2.814714974259   -0.077282036060
 O    2.002896419093   -1.869137753656    2.420826796303
 C   -0.648402948995   -2.975733329509    1.027192722970
 H   -0.283229506131   -3.827924867546    0.433486715988
 H   -0.503121453980   -3.181656311868    2.098818474873
 H   -1.715930824736   -2.816140537922    0.823838352995
 C    3.204003924006    0.237554817498    0.314676521787
 H    3.621450638029    0.247100456552    1.333500484318
 H    3.831332177680   -0.391294701611   -0.335783659130
 H    3.174730157505    1.262043707672   -0.080185879697
