27

 P   -1.893498836091    2.029738104928   -1.009246118306
 O   -2.526608836091    2.990798104928   -0.010276118306
 O   -2.167168836091    2.045228104928   -2.508386118306
 O   -0.205538836091    1.951988104928   -0.740136118306
 O   -2.020738836091    0.428578104928   -0.419826118306
 C    0.484131163909    3.151828104928   -1.114746118306
 H    0.118961163909    4.004008104928   -0.521036118306
 H    0.338851163909    3.357748104928   -2.186366118306
 H    1.551661163909    2.992228104928   -0.911386118306
 C   -3.368268836091   -0.061461895072   -0.402236118306
 H   -3.785718836091   -0.071011895072   -1.421066118306
 H   -3.995598836091    0.567388104928    0.248223881694
 H   -3.338998836091   -1.085951895072   -0.007376118306
NA    0.137321163909   -0.147201895072    0.073193881694
 P    1.868241460215   -2.002664038364    0.995785428722
 O    0.180285846770   -1.924917421577    0.726677286485
 O    1.995485059680   -0.401506730448    0.406361960151
 O    2.501351420176   -2.963731198512   -0.003186690400
 O    2.141910415133   -2.018153977910    2.494922141962
 C   -0.509388952955   -3.124749553763    1.101288068629
 H   -0.144215510091   -3.976941091799    0.507582061648
 H   -0.364107457940   -3.330672536121    2.172913820533
 H   -1.576916828697   -2.965156762175    0.897933698655
 C    3.343017920046    0.088538593245    0.388771867446
 H    3.760464634068    0.098084232298    1.407595829977
 H    3.970346173719   -0.540310925865   -0.261688313470
 H    3.313744153544    1.113027483419   -0.006090534037
