27

 P   -1.922853496204    2.061204868986   -1.024892339188
 O   -2.555963496204    3.022264868986   -0.025922339188
 O   -2.196523496204    2.076694868986   -2.524032339188
 O   -0.234893496204    1.983454868986   -0.755782339188
 O   -2.050093496204    0.460044868986   -0.435472339188
 C    0.454776503796    3.183294868986   -1.130392339188
 H    0.089606503796    4.035474868986   -0.536682339188
 H    0.309496503796    3.389214868986   -2.202012339188
 H    1.522306503796    3.023694868986   -0.927032339188
 C   -3.397623496204   -0.029995131014   -0.417882339188
 H   -3.815073496204   -0.039545131014   -1.436712339188
 H   -4.024953496204    0.598854868986    0.232577660812
 H   -3.368353496204   -1.054485131014   -0.023022339188
NA    0.107966503796   -0.115735131014    0.057547660812
 P    1.902994959225   -2.039918094428    1.014309265136
 O    0.215039345780   -1.962171477640    0.745201122900
 O    2.030238558690   -0.438760786511    0.424885796566
 O    2.536104919186   -3.000985254576    0.015337146015
 O    2.176663914143   -2.055408033973    2.513445978377
 C   -0.474635453946   -3.162003609826    1.119811905044
 H   -0.109462011081   -4.014195147862    0.526105898063
 H   -0.329353958930   -3.367926592184    2.191437656948
 H   -1.542163329687   -3.002410818238    0.916457535070
 C    3.377771419055    0.051284537182    0.407295703861
 H    3.795218133078    0.060830176235    1.426119666392
 H    4.005099672729   -0.577564981928   -0.243164477055
 H    3.348497652554    1.075773427355    0.012433302378
