27

 P   -2.010917476542    2.155605161162   -1.071831001835
 O   -2.644027476542    3.116665161162   -0.072861001835
 O   -2.284587476542    2.171095161162   -2.570971001835
 O   -0.322957476542    2.077855161162   -0.802721001835
 O   -2.138157476542    0.554445161162   -0.482411001835
 C    0.366712523458    3.277695161162   -1.177331001835
 H    0.001542523458    4.129875161162   -0.583621001835
 H    0.221432523458    3.483615161162   -2.248951001835
 H    1.434242523458    3.118095161162   -0.973971001835
 C   -3.485687476542    0.064405161162   -0.464821001835
 H   -3.903137476542    0.054855161162   -1.483651001835
 H   -4.113017476542    0.693255161162    0.185638998165
 H   -3.456417476542   -0.960084838838   -0.069961001835
NA    0.019902523458   -0.021334838838    0.010608998165
 P    2.007255456254   -2.151680262618    1.069880774381
 O    0.319299842809   -2.073933645830    0.800772632144
 O    2.134499055719   -0.550522954701    0.480457305811
 O    2.640365416216   -3.112747422766    0.070908655260
 O    2.280924411172   -2.167170202163    2.569017487622
 C   -0.370374956916   -3.273765778016    1.175383414289
 H   -0.005201514052   -4.125957316052    0.581677407308
 H   -0.225093461901   -3.479688760374    2.247009166193
 H   -1.437902832658   -3.114172986428    0.972029044314
 C    3.482031916085   -0.060477631008    0.462867213106
 H    3.899478630107   -0.050931991955    1.481691175637
 H    4.109360169759   -0.689327150118   -0.187592967811
 H    3.452758149584    0.964011259165    0.068004811622
