27

 P   -2.069626796767    2.218538689280   -1.103123443600
 O   -2.702736796767    3.179598689280   -0.104153443600
 O   -2.343296796767    2.234028689280   -2.602263443600
 O   -0.381666796767    2.140788689280   -0.834013443600
 O   -2.196866796767    0.617378689280   -0.513703443600
 C    0.308003203233    3.340628689280   -1.208623443600
 H   -0.057166796767    4.192808689280   -0.614913443600
 H    0.162723203233    3.546548689280   -2.280243443600
 H    1.375533203233    3.181028689280   -1.005263443600
 C   -3.544396796767    0.127338689280   -0.496113443600
 H   -3.961846796767    0.117788689280   -1.514943443600
 H   -4.171726796767    0.756188689280    0.154346556400
 H   -3.515126796767   -0.897151310720   -0.101253443600
NA   -0.038806796767    0.041598689280   -0.020683443600
 P    2.076762454274   -2.226188374744    1.106928447211
 O    0.388806840829   -2.148441757957    0.837820304974
 O    2.204006053739   -0.625031066828    0.517504978641
 O    2.709872414235   -3.187255534892    0.107956328090
 O    2.350431409192   -2.241678314289    2.606065160452
 C   -0.300867958896   -3.348273890142    1.212431087119
 H    0.064305483968   -4.200465428179    0.618725080138
 H   -0.155586463881   -3.554196872501    2.284056839023
 H   -1.368395834638   -3.188681098555    1.009076717144
 C    3.551538914105   -0.134985743135    0.499914885936
 H    3.968985628127   -0.125440104081    1.518738848467
 H    4.178867167778   -0.763835262244   -0.150545294981
 H    3.522265147603    0.889503147039    0.105052484452
