27

 P   -2.128336116992    2.281472217397   -1.134415885364
 O   -2.761446116992    3.242532217397   -0.135445885364
 O   -2.402006116992    2.296962217397   -2.633555885364
 O   -0.440376116992    2.203722217397   -0.865305885364
 O   -2.255576116992    0.680312217397   -0.544995885364
 C    0.249293883008    3.403562217397   -1.239915885364
 H   -0.115876116992    4.255742217397   -0.646205885364
 H    0.104013883008    3.609482217397   -2.311535885364
 H    1.316823883008    3.243962217397   -1.036555885364
 C   -3.603106116992    0.190272217397   -0.527405885364
 H   -4.020556116992    0.180722217397   -1.546235885364
 H   -4.230436116992    0.819122217397    0.123054114636
 H   -3.573836116992   -0.834217782603   -0.132545885364
NA   -0.097516116992    0.104532217397   -0.051975885364
 P    2.146269452293   -2.300696486871    1.143976120041
 O    0.458313838849   -2.222949870084    0.874867977804
 O    2.273513051759   -0.699539178955    0.554552651470
 O    2.779379412255   -3.261763647019    0.145004000919
 O    2.419938407211   -2.316186426416    2.643112833282
 C   -0.231360960877   -3.422782002269    1.249478759949
 H    0.133812481987   -4.274973540305    0.655772752967
 H   -0.086079465862   -3.628704984627    2.321104511853
 H   -1.298888836618   -3.263189210681    1.046124389974
 C    3.621045912124   -0.209493855261    0.536962558766
 H    4.038492626147   -0.199948216208    1.555786521297
 H    4.248374165798   -0.838343374371   -0.113497622151
 H    3.591772145623    0.814995034912    0.142100157282
