27

 P   -2.275109417555    2.438806037690   -1.212646989776
 O   -2.908219417555    3.399866037690   -0.213676989776
 O   -2.548779417555    2.454296037690   -2.711786989776
 O   -0.587149417555    2.361056037690   -0.943536989776
 O   -2.402349417555    0.837646037690   -0.623226989776
 C    0.102520582445    3.560896037690   -1.318146989776
 H   -0.262649417555    4.413076037690   -0.724436989776
 H   -0.042759417555    3.766816037690   -2.389766989776
 H    1.170050582445    3.401296037690   -1.114786989776
 C   -3.749879417555    0.347606037690   -0.605636989776
 H   -4.167329417555    0.338056037690   -1.624466989776
 H   -4.377209417555    0.976456037690    0.044823010224
 H   -3.720609417555   -0.676883962310   -0.210776989776
NA   -0.244289417555    0.261866037690   -0.130206989776
 P    2.320036947343   -2.486966767187    1.236595302116
 O    0.632081333898   -2.409220150400    0.967487159879
 O    2.447280546808   -0.885809459271    0.647171833545
 O    2.953146907304   -3.448033927335    0.237623182994
 O    2.593705902261   -2.502456706732    2.735732015357
 C   -0.057593465828   -3.609052282585    1.342097942024
 H    0.307579977037   -4.461243820622    0.748391935042
 H    0.087688029188   -3.814975264944    2.413723693927
 H   -1.125121341569   -3.449459490998    1.138743572049
 C    3.794813407173   -0.395764135578    0.629581740841
 H    4.212260121196   -0.386218496525    1.648405703372
 H    4.422141660847   -1.024613654688   -0.020878440076
 H    3.765539640672    0.628724754596    0.234719339357
