27

 P   -2.421882718118    2.596139857983   -1.290878094188
 O   -3.054992718118    3.557199857983   -0.291908094188
 O   -2.695552718118    2.611629857983   -2.790018094188
 O   -0.733922718118    2.518389857983   -1.021768094188
 O   -2.549122718118    0.994979857983   -0.701458094188
 C   -0.044252718118    3.718229857983   -1.396378094188
 H   -0.409422718118    4.570409857983   -0.802668094188
 H   -0.189532718118    3.924149857983   -2.467998094188
 H    1.023277281882    3.558629857983   -1.193018094188
 C   -3.896652718118    0.504939857983   -0.683868094188
 H   -4.314102718118    0.495389857983   -1.702698094188
 H   -4.523982718118    1.133789857983   -0.033408094188
 H   -3.867382718118   -0.519550142017   -0.289008094188
NA   -0.391062718118    0.419199857983   -0.208438094188
 P    2.493804442392   -2.673237047504    1.329214484191
 O    0.805848828947   -2.595490430716    1.060106341954
 O    2.621048041857   -1.072079739588    0.739791015620
 O    3.126914402353   -3.634304207652    0.330242365069
 O    2.767473397310   -2.688726987049    2.828351197432
 C    0.116174029222   -3.795322562902    1.434717124099
 H    0.481347472086   -4.647514100938    0.841011117117
 H    0.261455524237   -4.001245545260    2.506342876002
 H   -0.951353846520   -3.635729771314    1.231362754124
 C    3.968580902223   -0.582034415894    0.722200922915
 H    4.386027616245   -0.572488776841    1.741024885446
 H    4.595909155896   -1.210883935004    0.071740741999
 H    3.939307135721    0.442454474279    0.327338521432
