27

 P   -2.451237378231    2.627606622042   -1.306524315070
 O   -3.084347378231    3.588666622042   -0.307554315070
 O   -2.724907378231    2.643096622042   -2.805664315070
 O   -0.763277378231    2.549856622042   -1.037414315070
 O   -2.578477378231    1.026446622042   -0.717104315070
 C   -0.073607378231    3.749696622042   -1.412024315070
 H   -0.438777378231    4.601876622042   -0.818314315070
 H   -0.218887378231    3.955616622042   -2.483644315070
 H    0.993922621769    3.590096622042   -1.208664315070
 C   -3.926007378231    0.536406622042   -0.699514315070
 H   -4.343457378231    0.526856622042   -1.718344315070
 H   -4.553337378231    1.165256622042   -0.049054315070
 H   -3.896737378231   -0.488083377958   -0.304654315070
NA   -0.420417378231    0.450666622042   -0.224084315070
 P    2.528557941402   -2.710491103567    1.347738320606
 O    0.840602327957   -2.632744486780    1.078630178369
 O    2.655801540867   -1.109333795651    0.758314852035
 O    3.161667901363   -3.671558263715    0.348766201484
 O    2.802226896320   -2.725981043112    2.846875033846
 C    0.150927528231   -3.832576618965    1.453240960513
 H    0.516100971096   -4.684768157001    0.859534953532
 H    0.296209023247   -4.038499601324    2.524866712417
 H   -0.916600347510   -3.672983827378    1.249886590539
 C    4.003334401232   -0.619288471958    0.740724759330
 H    4.420781115255   -0.609742832904    1.759548721861
 H    4.630662654906   -1.248137991067    0.090264578414
 H    3.974060634731    0.405200418216    0.345862357847
