27

 P   -2.480592038343    2.659073386100   -1.322170535953
 O   -3.113702038343    3.620133386100   -0.323200535953
 O   -2.754262038343    2.674563386100   -2.821310535953
 O   -0.792632038343    2.581323386100   -1.053060535953
 O   -2.607832038343    1.057913386100   -0.732750535953
 C   -0.102962038343    3.781163386100   -1.427670535953
 H   -0.468132038343    4.633343386100   -0.833960535953
 H   -0.248242038343    3.987083386100   -2.499290535953
 H    0.964567961657    3.621563386100   -1.224310535953
 C   -3.955362038343    0.567873386100   -0.715160535953
 H   -4.372812038343    0.558323386100   -1.733990535953
 H   -4.582692038343    1.196723386100   -0.064700535953
 H   -3.926092038343   -0.456616613900   -0.320300535953
NA   -0.449772038343    0.482133386100   -0.239730535953
 P    2.563311440411   -2.747745159630    1.366262157020
 O    0.875355826967   -2.669998542843    1.097154014784
 O    2.690555039877   -1.146587851714    0.776838688450
 O    3.196421400373   -3.708812319778    0.367290037899
 O    2.836980395329   -2.763235099175    2.865398870261
 C    0.185681027241   -3.869830675028    1.471764796928
 H    0.550854470105   -4.722022213065    0.878058789947
 H    0.330962522256   -4.075753657387    2.543390548832
 H   -0.881846848500   -3.710237883441    1.268410426954
 C    4.038087900242   -0.656542528021    0.759248595745
 H    4.455534614265   -0.646996888968    1.778072558276
 H    4.665416153916   -1.285392047131    0.108788414829
 H    4.008814133741    0.367946362153    0.364386194262
