27

 P   -2.686074659132    2.879340734511   -1.431694082129
 O   -3.319184659132    3.840400734511   -0.432724082129
 O   -2.959744659132    2.894830734511   -2.930834082129
 O   -0.998114659132    2.801590734511   -1.162584082129
 O   -2.813314659132    1.278180734511   -0.842274082129
 C   -0.308444659132    4.001430734511   -1.537194082129
 H   -0.673614659132    4.853610734511   -0.943484082129
 H   -0.453724659132    4.207350734511   -2.608814082129
 H    0.759085340868    3.841830734511   -1.333834082129
 C   -4.160844659132    0.788140734511   -0.824684082129
 H   -4.578294659132    0.778590734511   -1.843514082129
 H   -4.788174659132    1.416990734511   -0.174224082129
 H   -4.131574659132   -0.236349265489   -0.429824082129
NA   -0.655254659132    0.702400734511   -0.349254082129
 P    2.806585933480   -3.008523552073    1.495929011925
 O    1.118630320035   -2.930776935286    1.226820869688
 O    2.933829532946   -1.407366244157    0.906505543354
 O    3.439695893442   -3.969590712221    0.496956892803
 O    3.080254888398   -3.024013491619    2.995065725166
 C    0.428955520310   -4.130609067472    1.601431651833
 H    0.794128963174   -4.982800605508    1.007725644851
 H    0.574237015325   -4.336532049830    2.673057403737
 H   -0.638572355432   -3.971016275884    1.398077281858
 C    4.281362393311   -0.917320920464    0.888915450650
 H    4.698809107333   -0.907775281411    1.907739413181
 H    4.908690646985   -1.546170439574    0.238455269733
 H    4.252088626810    0.107167969710    0.494053049166
