27

 P   -2.920911940033    3.131074846980   -1.556863849188
 O   -3.554021940033    4.092134846980   -0.557893849188
 O   -3.194581940033    3.146564846980   -3.056003849188
 O   -1.232951940033    3.053324846980   -1.287753849188
 O   -3.048151940033    1.529914846980   -0.967443849188
 C   -0.543281940033    4.253164846980   -1.662363849188
 H   -0.908451940033    5.105344846980   -1.068653849188
 H   -0.688561940033    4.459084846980   -2.733983849188
 H    0.524248059967    4.093564846980   -1.459003849188
 C   -4.395681940033    1.039874846980   -0.949853849188
 H   -4.813131940033    1.030324846980   -1.968683849188
 H   -5.023011940033    1.668724846980   -0.299393849188
 H   -4.366411940033    0.015384846980   -0.554993849188
NA   -0.890091940033    0.954134846980   -0.474423849188
 P    3.084613925559   -3.306556000580    1.644119703245
 O    1.396658312114   -3.228809383793    1.375011561008
 O    3.211857525024   -1.705398692664    1.054696234674
 O    3.717723885521   -4.267623160728    0.645147584123
 O    3.358282880477   -3.322045940125    3.143256416486
 C    0.706983512389   -4.428641515978    1.749622343153
 H    1.072156955253   -5.280833054014    1.155916336171
 H    0.852265007404   -4.634564498336    2.821248095056
 H   -0.360544363353   -4.269048724390    1.546267973178
 C    4.559390385390   -1.215353368971    1.037106141970
 H    4.976837099412   -1.205807729917    2.055930104500
 H    5.186718639064   -1.844202888080    0.386645961053
 H    4.530116618888   -0.190864478797    0.642243740486
