27

 P   -2.950266600145    3.162541611038   -1.572510070070
 O   -3.583376600145    4.123601611038   -0.573540070070
 O   -3.223936600145    3.178031611038   -3.071650070070
 O   -1.262306600145    3.084791611038   -1.303400070070
 O   -3.077506600145    1.561381611038   -0.983090070070
 C   -0.572636600145    4.284631611038   -1.678010070070
 H   -0.937806600145    5.136811611038   -1.084300070070
 H   -0.717916600145    4.490551611038   -2.749630070070
 H    0.494893399855    4.125031611038   -1.474650070070
 C   -4.425036600145    1.071341611038   -0.965500070070
 H   -4.842486600145    1.061791611038   -1.984330070070
 H   -5.052366600145    1.700191611038   -0.315040070070
 H   -4.395766600145    0.046851611038   -0.570640070070
NA   -0.919446600145    0.985601611038   -0.490070070070
 P    3.119367424569   -3.343810056643    1.662643539660
 O    1.431411811124   -3.266063439856    1.393535397423
 O    3.246611024034   -1.742652748727    1.073220071089
 O    3.752477384530   -4.304877216791    0.663671420538
 O    3.393036379487   -3.359299996188    3.161780252901
 C    0.741737011399   -4.465895572041    1.768146179568
 H    1.106910454263   -5.318087110077    1.174440172586
 H    0.887018506414   -4.671818554400    2.839771931471
 H   -0.325790864343   -4.306302780454    1.564791809593
 C    4.594143884400   -1.252607425034    1.055629978385
 H    5.011590598422   -1.243061785980    2.074453940915
 H    5.221472138073   -1.881456944143    0.405169797468
 H    4.564870117898   -0.228118534860    0.660767576901
