27

 P   -3.008975920370    3.225475139156   -1.603802511835
 O   -3.642085920370    4.186535139156   -0.604832511835
 O   -3.282645920370    3.240965139156   -3.102942511835
 O   -1.321015920370    3.147725139156   -1.334692511835
 O   -3.136215920370    1.624315139156   -1.014382511835
 C   -0.631345920370    4.347565139156   -1.709302511835
 H   -0.996515920370    5.199745139156   -1.115592511835
 H   -0.776625920370    4.553485139156   -2.780922511835
 H    0.436184079630    4.187965139156   -1.505942511835
 C   -4.483745920370    1.134275139156   -0.996792511835
 H   -4.901195920370    1.124725139156   -2.015622511835
 H   -5.111075920370    1.763125139156   -0.346332511835
 H   -4.454475920370    0.109785139156   -0.601932511835
NA   -0.978155920370    1.048535139156   -0.521362511835
 P    3.188874422588   -3.418318168770    1.699691212489
 O    1.500918809144   -3.340571551982    1.430583070253
 O    3.316118022054   -1.817160860853    1.110267743919
 O    3.821984382550   -4.379385328918    0.700719093368
 O    3.462543377506   -3.433808108315    3.198827925730
 C    0.811244009418   -4.540403684168    1.805193852397
 H    1.176417452282   -5.392595222204    1.211487845416
 H    0.956525504433   -4.746326666526    2.876819604301
 H   -0.256283866323   -4.380810892580    1.601839482423
 C    4.663650882419   -1.327115537160    1.092677651214
 H    5.081097596442   -1.317569898107    2.111501613745
 H    5.290979136093   -1.955965056270    0.442217470298
 H    4.634377115918   -0.302626646987    0.697815249731
