27

 P   -3.097039900708    3.319875431332   -1.650741174482
 O   -3.730149900708    4.280935431332   -0.651771174482
 O   -3.370709900708    3.335365431332   -3.149881174482
 O   -1.409079900708    3.242125431332   -1.381631174482
 O   -3.224279900708    1.718715431332   -1.061321174482
 C   -0.719409900708    4.441965431332   -1.756241174482
 H   -1.084579900708    5.294145431332   -1.162531174482
 H   -0.864689900708    4.647885431332   -2.827861174482
 H    0.348120099292    4.282365431332   -1.552881174482
 C   -4.571809900708    1.228675431332   -1.043731174482
 H   -4.989259900708    1.219125431332   -2.062561174482
 H   -5.199139900708    1.857525431332   -0.393271174482
 H   -4.542539900708    0.204185431332   -0.648871174482
NA   -1.066219900708    1.142935431332   -0.568301174482
 P    3.293134919618   -3.530080336960    1.755262721734
 O    1.605179306173   -3.452333720172    1.486154579497
 O    3.420378519083   -1.928923029043    1.165839253164
 O    3.926244879580   -4.491147497108    0.756290602613
 O    3.566803874536   -3.545570276505    3.254399434975
 C    0.915504506448   -4.652165852358    1.860765361642
 H    1.280677949312   -5.504357390394    1.267059354661
 H    1.060786001463   -4.858088834716    2.932391113546
 H   -0.152023369294   -4.492573060770    1.657410991667
 C    4.767911379449   -1.438877705350    1.148249160459
 H    5.185358093471   -1.429332066297    2.167073122990
 H    5.395239633123   -2.067727224460    0.497788979542
 H    4.738637612947   -0.414388815177    0.753386758975
