27

 P   -3.126394560821    3.351342195390   -1.666387395364
 O   -3.759504560821    4.312402195390   -0.667417395364
 O   -3.400064560821    3.366832195390   -3.165527395364
 O   -1.438434560821    3.273592195390   -1.397277395364
 O   -3.253634560821    1.750182195390   -1.076967395364
 C   -0.748764560821    4.473432195390   -1.771887395364
 H   -1.113934560821    5.325612195390   -1.178177395364
 H   -0.894044560821    4.679352195390   -2.843507395364
 H    0.318765439179    4.313832195390   -1.568527395364
 C   -4.601164560821    1.260142195390   -1.059377395364
 H   -5.018614560821    1.250592195390   -2.078207395364
 H   -5.228494560821    1.888992195390   -0.408917395364
 H   -4.571894560821    0.235652195390   -0.664517395364
NA   -1.095574560821    1.174402195390   -0.583947395364
 P    3.327888418628   -3.567334393023    1.773786558149
 O    1.639932805183   -3.489587776236    1.504678415912
 O    3.455132018093   -1.966177085107    1.184363089579
 O    3.960998378589   -4.528401553171    0.774814439028
 O    3.601557373546   -3.582824332568    3.272923271390
 C    0.950258005458   -4.689419908421    1.879289198057
 H    1.315431448322   -5.541611446457    1.285583191076
 H    1.095539500473   -4.895342890779    2.950914949961
 H   -0.117269870284   -4.529827116834    1.675934828082
 C    4.802664878459   -1.476131761414    1.166772996874
 H    5.220111592481   -1.466586122360    2.185596959405
 H    5.429993132132   -2.104981280523    0.516312815957
 H    4.773391111957   -0.451642871240    0.771910595390
