27

 P   -3.155749220934    3.382808959449   -1.682033616247
 O   -3.788859220934    4.343868959449   -0.683063616247
 O   -3.429419220934    3.398298959449   -3.181173616247
 O   -1.467789220934    3.305058959449   -1.412923616247
 O   -3.282989220934    1.781648959449   -1.092613616247
 C   -0.778119220934    4.504898959449   -1.787533616247
 H   -1.143289220934    5.357078959449   -1.193823616247
 H   -0.923399220934    4.710818959449   -2.859153616247
 H    0.289410779066    4.345298959449   -1.584173616247
 C   -4.630519220934    1.291608959449   -1.075023616247
 H   -5.047969220934    1.282058959449   -2.093853616247
 H   -5.257849220934    1.920458959449   -0.424563616247
 H   -4.601249220934    0.267118959449   -0.680163616247
NA   -1.124929220934    1.205868959449   -0.599593616247
 P    3.362641917638   -3.604588449086    1.792310394564
 O    1.674686304193   -3.526841832299    1.523202252327
 O    3.489885517103   -2.003431141170    1.202886925994
 O    3.995751877599   -4.565655609234    0.793338275443
 O    3.636310872556   -3.620078388631    3.291447107805
 C    0.985011504467   -4.726673964484    1.897813034472
 H    1.350184947332   -5.578865502521    1.304107027491
 H    1.130292999483   -4.932596946843    2.969438786376
 H   -0.082516371274   -4.567081172897    1.694458664497
 C    4.837418377468   -1.513385817477    1.185296833289
 H    5.254865091491   -1.503840178423    2.204120795820
 H    5.464746631142   -2.142235336586    0.534836652372
 H    4.808144610967   -0.488896927303    0.790434431805
