27

 P   -3.185103881046    3.414275723508   -1.697679837129
 O   -3.818213881046    4.375335723508   -0.698709837129
 O   -3.458773881046    3.429765723508   -3.196819837129
 O   -1.497143881046    3.336525723508   -1.428569837129
 O   -3.312343881046    1.813115723508   -1.108259837129
 C   -0.807473881046    4.536365723508   -1.803179837129
 H   -1.172643881046    5.388545723508   -1.209469837129
 H   -0.952753881046    4.742285723508   -2.874799837129
 H    0.260056118954    4.376765723508   -1.599819837129
 C   -4.659873881046    1.323075723508   -1.090669837129
 H   -5.077323881046    1.313525723508   -2.109499837129
 H   -5.287203881046    1.951925723508   -0.440209837129
 H   -4.630603881046    0.298585723508   -0.695809837129
NA   -1.154283881046    1.237335723508   -0.615239837129
 P    3.397395416647   -3.641842505149    1.810834230979
 O    1.709439803203   -3.564095888362    1.541726088742
 O    3.524639016113   -2.040685197233    1.221410762409
 O    4.030505376609   -4.602909665298    0.811862111858
 O    3.671064371565   -3.657332444695    3.309970944220
 C    1.019765003477   -4.763928020548    1.916336870887
 H    1.384938446341   -5.616119558584    1.322630863906
 H    1.165046498492   -4.969851002906    2.987962622791
 H   -0.047762872264   -4.604335228960    1.712982500912
 C    4.872171876478   -1.550639873540    1.203820669704
 H    5.289618590501   -1.541094234487    2.222644632235
 H    5.499500130152   -2.179489392650    0.553360488787
 H    4.842898109977   -0.526150983367    0.808958268220
