27

 P   -3.214458541159    3.445742487566   -1.713326058011
 O   -3.847568541159    4.406802487566   -0.714356058011
 O   -3.488128541159    3.461232487566   -3.212466058011
 O   -1.526498541159    3.367992487566   -1.444216058011
 O   -3.341698541159    1.844582487566   -1.123906058011
 C   -0.836828541159    4.567832487566   -1.818826058011
 H   -1.201998541159    5.420012487566   -1.225116058011
 H   -0.982108541159    4.773752487566   -2.890446058011
 H    0.230701458841    4.408232487566   -1.615466058011
 C   -4.689228541159    1.354542487566   -1.106316058011
 H   -5.106678541159    1.344992487566   -2.125146058011
 H   -5.316558541159    1.983392487566   -0.455856058011
 H   -4.659958541159    0.330052487566   -0.711456058011
NA   -1.183638541159    1.268802487566   -0.630886058011
 P    3.432148915657   -3.679096561213    1.829358067394
 O    1.744193302212   -3.601349944426    1.560249925157
 O    3.559392515122   -2.077939253297    1.239934598824
 O    4.065258875619   -4.640163721361    0.830385948273
 O    3.705817870575   -3.694586500758    3.328494780635
 C    1.054518502487   -4.801182076611    1.934860707302
 H    1.419691945351   -5.653373614647    1.341154700320
 H    1.199799997502   -5.007105058969    3.006486459206
 H   -0.013009373255   -4.641589285023    1.731506337327
 C    4.906925375488   -1.587893929603    1.222344506119
 H    5.324372089510   -1.578348290550    2.241168468650
 H    5.534253629162   -2.216743448713    0.571884325202
 H    4.877651608987   -0.563405039430    0.827482104635
