27

 P   -3.243813201271    3.477209251625   -1.728972278894
 O   -3.876923201271    4.438269251625   -0.730002278894
 O   -3.517483201271    3.492699251625   -3.228112278894
 O   -1.555853201271    3.399459251625   -1.459862278894
 O   -3.371053201271    1.876049251625   -1.139552278894
 C   -0.866183201271    4.599299251625   -1.834472278894
 H   -1.231353201271    5.451479251625   -1.240762278894
 H   -1.011463201271    4.805219251625   -2.906092278894
 H    0.201346798729    4.439699251625   -1.631112278894
 C   -4.718583201271    1.386009251625   -1.121962278894
 H   -5.136033201271    1.376459251625   -2.140792278894
 H   -5.345913201271    2.014859251625   -0.471502278894
 H   -4.689313201271    0.361519251625   -0.727102278894
NA   -1.212993201271    1.300269251625   -0.646532278894
 P    3.466902414667   -3.716350617276    1.847881903809
 O    1.778946801222   -3.638604000489    1.578773761572
 O    3.594146014132   -2.115193309360    1.258458435238
 O    4.100012374629   -4.677417777424    0.848909784687
 O    3.740571369585   -3.731840556821    3.347018617050
 C    1.089272001497   -4.838436132674    1.953384543717
 H    1.454445444361   -5.690627670710    1.359678536735
 H    1.234553496512   -5.044359115033    3.025010295621
 H    0.021744125755   -4.678843341087    1.750030173742
 C    4.941678874498   -1.625147985667    1.240868342534
 H    5.359125588520   -1.615602346613    2.259692305065
 H    5.569007128172   -2.253997504776    0.590408161617
 H    4.912405107997   -0.600659095493    0.846005941050
