27

 P   -3.302522521497    3.540142779742   -1.760264720658
 O   -3.935632521497    4.501202779742   -0.761294720658
 O   -3.576192521497    3.555632779742   -3.259404720658
 O   -1.614562521497    3.462392779742   -1.491154720658
 O   -3.429762521497    1.938982779742   -1.170844720658
 C   -0.924892521497    4.662232779742   -1.865764720658
 H   -1.290062521497    5.514412779742   -1.272054720658
 H   -1.070172521497    4.868152779742   -2.937384720658
 H    0.142637478503    4.502632779742   -1.662404720658
 C   -4.777292521497    1.448942779742   -1.153254720658
 H   -5.194742521497    1.439392779742   -2.172084720658
 H   -5.404622521497    2.077792779742   -0.502794720658
 H   -4.748022521497    0.424452779742   -0.758394720658
NA   -1.271702521497    1.363202779742   -0.677824720658
 P    3.536409412687   -3.790858729403    1.884929576639
 O    1.848453799242   -3.713112112615    1.615821434402
 O    3.663653012152   -2.189701421486    1.295506108068
 O    4.169519372648   -4.751925889551    0.885957457517
 O    3.810078367605   -3.806348668948    3.384066289880
 C    1.158778999517   -4.912944244801    1.990432216547
 H    1.523952442381   -5.765135782837    1.396726209565
 H    1.304060494532   -5.118867227159    3.062057968450
 H    0.091251123775   -4.753351453213    1.787077846572
 C    5.011185872518   -1.699656097793    1.277916015364
 H    5.428632586540   -1.690110458740    2.296739977895
 H    5.638514126191   -2.328505616903    0.627455834447
 H    4.981912106016   -0.675167207620    0.883053613880
