27

 P   -3.331877181609    3.571609543801   -1.775910941541
 O   -3.964987181609    4.532669543801   -0.776940941541
 O   -3.605547181609    3.587099543801   -3.275050941541
 O   -1.643917181609    3.493859543801   -1.506800941541
 O   -3.459117181609    1.970449543801   -1.186490941541
 C   -0.954247181609    4.693699543801   -1.881410941541
 H   -1.319417181609    5.545879543801   -1.287700941541
 H   -1.099527181609    4.899619543801   -2.953030941541
 H    0.113282818391    4.534099543801   -1.678050941541
 C   -4.806647181609    1.480409543801   -1.168900941541
 H   -5.224097181609    1.470859543801   -2.187730941541
 H   -5.433977181609    2.109259543801   -0.518440941541
 H   -4.777377181609    0.455919543801   -0.774040941541
NA   -1.301057181609    1.394669543801   -0.693470941541
 P    3.571162911697   -3.828112785466    1.903453413054
 O    1.883207298252   -3.750366168679    1.634345270817
 O    3.698406511162   -2.226955477550    1.314029944483
 O    4.204272871658   -4.789179945614    0.904481293932
 O    3.844831866615   -3.843602725011    3.402590126295
 C    1.193532498526   -4.950198300864    2.008956052962
 H    1.558705941391   -5.802389838900    1.415250045980
 H    1.338813993542   -5.156121283222    3.080581804865
 H    0.126004622785   -4.790605509277    1.805601682987
 C    5.045939371527   -1.736910153857    1.296439851779
 H    5.463386085550   -1.727364514803    2.315263814310
 H    5.673267625201   -2.365759672966    0.645979670862
 H    5.016665605026   -0.712421263683    0.901577450295
