27

 P   -3.478650482172    3.728943364094   -1.854142045953
 O   -4.111760482172    4.690003364094   -0.855172045953
 O   -3.752320482172    3.744433364094   -3.353282045953
 O   -1.790690482172    3.651193364094   -1.585032045953
 O   -3.605890482172    2.127783364094   -1.264722045953
 C   -1.101020482172    4.851033364094   -1.959642045953
 H   -1.466190482172    5.703213364094   -1.365932045953
 H   -1.246300482172    5.056953364094   -3.031262045953
 H   -0.033490482172    4.691433364094   -1.756282045953
 C   -4.953420482172    1.637743364094   -1.247132045953
 H   -5.370870482172    1.628193364094   -2.265962045953
 H   -5.580750482172    2.266593364094   -0.596672045953
 H   -4.924150482172    0.613253364094   -0.852272045953
NA   -1.447830482172    1.552003364094   -0.771702045953
 P    3.744930406746   -4.014383065782    1.996072595129
 O    2.056974793301   -3.936636448995    1.726964452892
 O    3.872174006211   -2.413225757866    1.406649126558
 O    4.378040366707   -4.975450225930    0.997100476007
 O    4.018599361664   -4.029873005328    3.495209308370
 C    1.367299993576   -5.136468581181    2.101575235037
 H    1.732473436440   -5.988660119217    1.507869228055
 H    1.512581488591   -5.342391563539    3.173200986940
 H    0.299772117834   -4.976875789593    1.898220865062
 C    5.219706866577   -1.923180434173    1.389059033854
 H    5.637153580599   -1.913634795120    2.407882996384
 H    5.847035120250   -2.552029953283    0.738598852937
 H    5.190433100075   -0.898691544000    0.994196632370
