27

 P   -3.566714462510    3.823343656270   -1.901080708600
 O   -4.199824462510    4.784403656270   -0.902110708600
 O   -3.840384462510    3.838833656270   -3.400220708600
 O   -1.878754462510    3.745593656270   -1.631970708600
 O   -3.693954462510    2.222183656270   -1.311660708600
 C   -1.189084462510    4.945433656270   -2.006580708600
 H   -1.554254462510    5.797613656270   -1.412870708600
 H   -1.334364462510    5.151353656270   -3.078200708600
 H   -0.121554462510    4.785833656270   -1.803220708600
 C   -5.041484462510    1.732143656270   -1.294070708600
 H   -5.458934462510    1.722593656270   -2.312900708600
 H   -5.668814462510    2.360993656270   -0.643610708600
 H   -5.012214462510    0.707653656270   -0.899210708600
NA   -1.535894462510    1.646403656270   -0.818640708600
 P    3.849190903775   -4.126145233972    2.051644104373
 O    2.161235290330   -4.048398617185    1.782535962137
 O    3.976434503240   -2.524987926056    1.462220635803
 O    4.482300863737   -5.087212394120    1.052671985252
 O    4.122859858693   -4.141635173517    3.550780817614
 C    1.471560490605   -5.248230749370    2.157146744281
 H    1.836733933469   -6.100422287407    1.563440737300
 H    1.616841985620   -5.454153731729    3.228772496185
 H    0.404032614863   -5.088637957783    1.953792374307
 C    5.323967363606   -2.034942602363    1.444630543098
 H    5.741414077628   -2.025396963310    2.463454505629
 H    5.951295617280   -2.663792121473    0.794170362182
 H    5.294693597105   -1.010453712189    1.049768141615
