27

 P   -3.596069122623    3.854810420328   -1.916726929482
 O   -4.229179122623    4.815870420328   -0.917756929482
 O   -3.869739122623    3.870300420328   -3.415866929482
 O   -1.908109122623    3.777060420328   -1.647616929482
 O   -3.723309122623    2.253650420328   -1.327306929482
 C   -1.218439122623    4.976900420328   -2.022226929482
 H   -1.583609122623    5.829080420328   -1.428516929482
 H   -1.363719122623    5.182820420328   -3.093846929482
 H   -0.150909122623    4.817300420328   -1.818866929482
 C   -5.070839122623    1.763610420328   -1.309716929482
 H   -5.488289122623    1.754060420328   -2.328546929482
 H   -5.698169122623    2.392460420328   -0.659256929482
 H   -5.041569122623    0.739120420328   -0.914856929482
NA   -1.565249122623    1.677870420328   -0.834286929482
 P    3.883944402785   -4.163399290036    2.070167940788
 O    2.195988789340   -4.085652673248    1.801059798551
 O    4.011188002250   -2.562241982119    1.480744472218
 O    4.517054362747   -5.124466450184    1.071195821667
 O    4.157613357703   -4.178889229581    3.569304654029
 C    1.506313989615   -5.285484805434    2.175670580696
 H    1.871487432479   -6.137676343470    1.581964573715
 H    1.651595484630   -5.491407787792    3.247296332600
 H    0.438786113873   -5.125892013846    1.972316210722
 C    5.358720862616   -2.072196658426    1.463154379513
 H    5.776167576638   -2.062651019373    2.481978342044
 H    5.986049116290   -2.701046177536    0.812694198597
 H    5.329447096115   -1.047707768253    1.068291978030
