27

 P   -3.654778442848    3.917743948446   -1.948019371247
 O   -4.287888442848    4.878803948446   -0.949049371247
 O   -3.928448442848    3.933233948446   -3.447159371247
 O   -1.966818442848    3.839993948446   -1.678909371247
 O   -3.782018442848    2.316583948446   -1.358599371247
 C   -1.277148442848    5.039833948446   -2.053519371247
 H   -1.642318442848    5.892013948446   -1.459809371247
 H   -1.422428442848    5.245753948446   -3.125139371247
 H   -0.209618442848    4.880233948446   -1.850159371247
 C   -5.129548442848    1.826543948446   -1.341009371247
 H   -5.546998442848    1.816993948446   -2.359839371247
 H   -5.756878442848    2.455393948446   -0.690549371247
 H   -5.100278442848    0.802053948446   -0.946149371247
NA   -1.623958442848    1.740803948446   -0.865579371247
 P    3.953451400805   -4.237907402162    2.107215613618
 O    2.265495787360   -4.160160785375    1.838107471381
 O    4.080695000270   -2.636750094246    1.517792145048
 O    4.586561360766   -5.198974562310    1.108243494497
 O    4.227120355723   -4.253397341707    3.606352326859
 C    1.575820987635   -5.359992917560    2.212718253526
 H    1.940994430499   -6.212184455597    1.619012246545
 H    1.721102482650   -5.565915899919    3.284344005430
 H    0.508293111893   -5.200400125973    2.009363883551
 C    5.428227860636   -2.146704770553    1.500202052343
 H    5.845674574658   -2.137159131500    2.519026014874
 H    6.055556114309   -2.775554289662    0.849741871426
 H    5.398954094134   -1.122215880379    1.105339650859
