27

 P   -3.713487763073    3.980677476563   -1.979311813011
 O   -4.346597763073    4.941737476563   -0.980341813011
 O   -3.987157763073    3.996167476563   -3.478451813011
 O   -2.025527763073    3.902927476563   -1.710201813011
 O   -3.840727763073    2.379517476563   -1.389891813011
 C   -1.335857763073    5.102767476563   -2.084811813011
 H   -1.701027763073    5.954947476563   -1.491101813011
 H   -1.481137763073    5.308687476563   -3.156431813011
 H   -0.268327763073    4.943167476563   -1.881451813011
 C   -5.188257763073    1.889477476563   -1.372301813011
 H   -5.605707763073    1.879927476563   -2.391131813011
 H   -5.815587763073    2.518327476563   -0.721841813011
 H   -5.158987763073    0.864987476563   -0.977441813011
NA   -1.682667763073    1.803737476563   -0.896871813011
 P    4.022958398824   -4.312415514289    2.144263286448
 O    2.335002785380   -4.234668897502    1.875155144211
 O    4.150201998290   -2.711258206373    1.554839817878
 O    4.656068358786   -5.273482674437    1.145291167327
 O    4.296627353742   -4.327905453834    3.643399999689
 C    1.645327985654   -5.434501029687    2.249765926356
 H    2.010501428518   -6.286692567723    1.656059919375
 H    1.790609480669   -5.640424012045    3.321391678260
 H    0.577800109913   -5.274908238099    2.046411556381
 C    5.497734858655   -2.221212882680    1.537249725173
 H    5.915181572678   -2.211667243626    2.556073687704
 H    6.125063112329   -2.850062401789    0.886789544256
 H    5.468461092154   -1.196723992506    1.142387323689
