27

 P   -3.830906403524    4.106544532797   -2.041896696541
 O   -4.464016403524    5.067604532797   -1.042926696541
 O   -4.104576403524    4.122034532797   -3.541036696541
 O   -2.142946403524    4.028794532797   -1.772786696541
 O   -3.958146403524    2.505384532797   -1.452476696541
 C   -1.453276403524    5.228634532797   -2.147396696541
 H   -1.818446403524    6.080814532797   -1.553686696541
 H   -1.598556403524    5.434554532797   -3.219016696541
 H   -0.385746403524    5.069034532797   -1.944036696541
 C   -5.305676403524    2.015344532797   -1.434886696541
 H   -5.723126403524    2.005794532797   -2.453716696541
 H   -5.933006403524    2.644194532797   -0.784426696541
 H   -5.276406403524    0.990854532797   -1.040026696541
NA   -1.800086403524    1.929604532797   -0.959456696541
 P    4.161972394864   -4.461431738542    2.218358632108
 O    2.474016781419   -4.383685121755    1.949250489871
 O    4.289215994329   -2.860274430626    1.628935163537
 O    4.795082354825   -5.422498898690    1.219386512986
 O    4.435641349782   -4.476921678087    3.717495345349
 C    1.784341981694   -5.583517253940    2.323861272016
 H    2.149515424558   -6.435708791976    1.730155265034
 H    1.929623476709   -5.789440236299    3.395487023920
 H    0.716814105952   -5.423924462353    2.120506902041
 C    5.636748854695   -2.370229106933    1.611345070833
 H    6.054195568717   -2.360683467879    2.630169033364
 H    6.264077108368   -2.999078626042    0.960884889916
 H    5.607475088193   -1.345740216759    1.216482669349
