27

 P   -3.860261063636    4.138011296856   -2.057542917423
 O   -4.493371063636    5.099071296856   -1.058572917423
 O   -4.133931063636    4.153501296856   -3.556682917423
 O   -2.172301063636    4.060261296856   -1.788432917423
 O   -3.987501063636    2.536851296856   -1.468122917423
 C   -1.482631063636    5.260101296856   -2.163042917423
 H   -1.847801063636    6.112281296856   -1.569332917423
 H   -1.627911063636    5.466021296856   -3.234662917423
 H   -0.415101063636    5.100501296856   -1.959682917423
 C   -5.335031063636    2.046811296856   -1.450532917423
 H   -5.752481063636    2.037261296856   -2.469362917423
 H   -5.962361063636    2.675661296856   -0.800072917423
 H   -5.305761063636    1.022321296856   -1.055672917423
NA   -1.829441063636    1.961071296856   -0.975102917423
 P    4.196725893874   -4.498685794605    2.236882468523
 O    2.508770280429   -4.420939177818    1.967774326286
 O    4.323969493339   -2.897528486689    1.647458999952
 O    4.829835853835   -5.459752954753    1.237910349401
 O    4.470394848792   -4.514175734150    3.736019181764
 C    1.819095480703   -5.620771310003    2.342385108431
 H    2.184268923568   -6.472962848040    1.748679101449
 H    1.964376975719   -5.826694292362    3.414010860334
 H    0.751567604962   -5.461178518416    2.139030738456
 C    5.671502353704   -2.407483162996    1.629868907248
 H    6.088949067727   -2.397937523943    2.648692869779
 H    6.298830607378   -3.036332682106    0.979408726331
 H    5.642228587203   -1.382994272822    1.235006505764
