27

 P   -3.889615723749    4.169478060915   -2.073189138305
 O   -4.522725723749    5.130538060915   -1.074219138305
 O   -4.163285723749    4.184968060915   -3.572329138305
 O   -2.201655723749    4.091728060915   -1.804079138305
 O   -4.016855723749    2.568318060915   -1.483769138305
 C   -1.511985723749    5.291568060915   -2.178689138305
 H   -1.877155723749    6.143748060915   -1.584979138305
 H   -1.657265723749    5.497488060915   -3.250309138305
 H   -0.444455723749    5.131968060915   -1.975329138305
 C   -5.364385723749    2.078278060915   -1.466179138305
 H   -5.781835723749    2.068728060915   -2.485009138305
 H   -5.991715723749    2.707128060915   -0.815719138305
 H   -5.335115723749    1.053788060915   -1.071319138305
NA   -1.858795723749    1.992538060915   -0.990749138305
 P    4.231479392883   -4.535939850669    2.255406304938
 O    2.543523779439   -4.458193233881    1.986298162701
 O    4.358722992349   -2.934782542752    1.665982836367
 O    4.864589352845   -5.497007010817    1.256434185816
 O    4.505148347801   -4.551429790214    3.754543018179
 C    1.853848979713   -5.658025366067    2.360908944846
 H    2.219022422577   -6.510216904103    1.767202937864
 H    1.999130474728   -5.863948348425    3.432534696749
 H    0.786321103972   -5.498432574479    2.157554574871
 C    5.706255852714   -2.444737219059    1.648392743663
 H    6.123702566737   -2.435191580006    2.667216706194
 H    6.333584106388   -3.073586738169    0.997932562746
 H    5.676982086213   -1.420248328886    1.253530342179
