27

 P   -3.948325043974    4.232411589032   -2.104481580070
 O   -4.581435043974    5.193471589032   -1.105511580070
 O   -4.221995043974    4.247901589032   -3.603621580070
 O   -2.260365043974    4.154661589032   -1.835371580070
 O   -4.075565043974    2.631251589032   -1.515061580070
 C   -1.570695043974    5.354501589032   -2.209981580070
 H   -1.935865043974    6.206681589032   -1.616271580070
 H   -1.715975043974    5.560421589032   -3.281601580070
 H   -0.503165043974    5.194901589032   -2.006621580070
 C   -5.423095043974    2.141211589032   -1.497471580070
 H   -5.840545043974    2.131661589032   -2.516301580070
 H   -6.050425043974    2.770061589032   -0.847011580070
 H   -5.393825043974    1.116721589032   -1.102611580070
NA   -1.917505043974    2.055471589032   -1.022041580070
 P    4.300986390903   -4.610447962795    2.292453977768
 O    2.613030777458   -4.532701346008    2.023345835531
 O    4.428229990368   -3.009290654879    1.703030509197
 O    4.934096350865   -5.571515122943    1.293481858646
 O    4.574655345821   -4.625937902340    3.791590691009
 C    1.923355977733   -5.732533478193    2.397956617676
 H    2.288529420597   -6.584725016230    1.804250610694
 H    2.068637472748   -5.938456460552    3.469582369579
 H    0.855828101991   -5.572940686606    2.194602247701
 C    5.775762850734   -2.519245331186    1.685440416493
 H    6.193209564756   -2.509699692132    2.704264379024
 H    6.403091104408   -3.148094850295    1.034980235576
 H    5.746489084232   -1.494756441012    1.290578015009
