16

 N   -2.062579718966    0.402381093436   -0.198989329971
 C   -0.830453986699   -0.227909186572   -0.198034369663
 N   -0.560313050573   -1.548794661540   -0.201498558610
 C    0.767816117890   -1.766988554290   -0.185931129947
 H    1.081624400860   -2.813667286780   -0.182551559256
 N    1.780165560931   -0.859007597149   -0.171959859672
 C    1.467948817024    0.451813486100   -0.176606263572
 N    2.475575771826    1.376312123405   -0.218428100503
 H    3.407027309213    1.045782014653    0.004029833630
 H    2.242838265799    2.336282878444    0.006382144937
 C    0.102447976150    0.828507339967   -0.185377351287
 N   -0.521081335041    2.067473040597   -0.175499142269
 C   -1.821006822198    1.759393652236   -0.183953995427
 H   -2.631060350985    2.485974453338   -0.179905857564
 H   -2.966369396136   -0.057876030398   -0.206592385904
NA   -0.563386179549   -1.552832550792    1.098491538017
