16

 N   -2.062442171276    0.402561822049   -0.257174533273
 C   -0.830316439009   -0.227728457959   -0.256219572965
 N   -0.560175502883   -1.548613932927   -0.259683761912
 C    0.767953665580   -1.766807825677   -0.244116333249
 H    1.081761948550   -2.813486558167   -0.240736762558
 N    1.780303108621   -0.858826868536   -0.230145062974
 C    1.468086364714    0.451994214713   -0.234791466874
 N    2.475713319516    1.376492852018   -0.276613303805
 H    3.407164856903    1.045962743266   -0.054155369672
 H    2.242975813489    2.336463607057   -0.051803058365
 C    0.102585523840    0.828688068580   -0.243562554589
 N   -0.520943787351    2.067653769210   -0.233684345571
 C   -1.820869274508    1.759574380849   -0.242139198729
 H   -2.630922803295    2.486155181951   -0.238091060866
 H   -2.966231848446   -0.057695301785   -0.264777589206
NA   -0.564194210006   -1.553894249642    1.440303287524
