16

 N   -2.062373397431    0.402652186355   -0.286267134923
 C   -0.830247665164   -0.227638093653   -0.285312174615
 N   -0.560106729038   -1.548523568621   -0.288776363562
 C    0.768022439425   -1.766717461371   -0.273208934899
 H    1.081830722395   -2.813396193861   -0.269829364208
 N    1.780371882466   -0.858736504230   -0.259237664624
 C    1.468155138559    0.452084579019   -0.263884068524
 N    2.475782093361    1.376583216324   -0.305705905455
 H    3.407233630748    1.046053107572   -0.083247971322
 H    2.243044587334    2.336553971363   -0.080895660015
 C    0.102654297685    0.828778432886   -0.272655156239
 N   -0.520875013506    2.067744133516   -0.262776947221
 C   -1.820800500663    1.759664745155   -0.271231800379
 H   -2.630854029450    2.486245546257   -0.267183662516
 H   -2.966163074601   -0.057604937479   -0.293870190856
NA   -0.564598225235   -1.554425099066    1.611209162277
