16

 N   -2.062339010509    0.402697368508   -0.300813435749
 C   -0.830213278242   -0.227592911500   -0.299858475441
 N   -0.560072342116   -1.548478386468   -0.303322664388
 C    0.768056826347   -1.766672279218   -0.287755235725
 H    1.081865109317   -2.813351011708   -0.284375665034
 N    1.780406269388   -0.858691322077   -0.273783965450
 C    1.468189525481    0.452129761172   -0.278430369350
 N    2.475816480283    1.376628398477   -0.320252206281
 H    3.407268017670    1.046098289725   -0.097794272148
 H    2.243078974256    2.336599153516   -0.095441960841
 C    0.102688684607    0.828823615039   -0.287201457065
 N   -0.520840626584    2.067789315669   -0.277323248047
 C   -1.820766113741    1.759709927308   -0.285778101205
 H   -2.630819642528    2.486290728410   -0.281729963342
 H   -2.966128687679   -0.057559755326   -0.308416491682
NA   -0.564800232849   -1.554690523778    1.696662099654
