16

 N   -2.062235849742    0.402832914968   -0.344452338225
 C   -0.830110117475   -0.227457365040   -0.343497377917
 N   -0.559969181349   -1.548342840008   -0.346961566864
 C    0.768159987114   -1.766536732758   -0.331394138201
 H    1.081968270084   -2.813215465248   -0.328014567510
 N    1.780509430155   -0.858555775617   -0.317422867926
 C    1.468292686248    0.452265307632   -0.322069271826
 N    2.475919641050    1.376763944937   -0.363891108757
 H    3.407371178437    1.046233836185   -0.141433174624
 H    2.243182135023    2.336734699976   -0.139080863317
 C    0.102791845374    0.828959161499   -0.330840359541
 N   -0.520737465817    2.067924862129   -0.320962150523
 C   -1.820662952974    1.759845473768   -0.329417003681
 H   -2.630716481761    2.486426274870   -0.325368865818
 H   -2.966025526912   -0.057424208866   -0.352055394158
NA   -0.565406255692   -1.555486797915    1.953020911784
