16

 N   -2.062167075897    0.402923279275   -0.373544939876
 C   -0.830041343630   -0.227367000733   -0.372589979568
 N   -0.559900407504   -1.548252475701   -0.376054168515
 C    0.768228760959   -1.766446368451   -0.360486739852
 H    1.082037043929   -2.813125100941   -0.357107169161
 N    1.780578204000   -0.858465411310   -0.346515469577
 C    1.468361460093    0.452355671939   -0.351161873477
 N    2.475988414895    1.376854309244   -0.392983710408
 H    3.407439952282    1.046324200492   -0.170525776275
 H    2.243250908868    2.336825064283   -0.168173464968
 C    0.102860619219    0.829049525806   -0.359932961192
 N   -0.520668691972    2.068015226436   -0.350054752174
 C   -1.820594179129    1.759935838075   -0.358509605332
 H   -2.630647707916    2.486516639177   -0.354461467469
 H   -2.965956753067   -0.057333844559   -0.381147995809
NA   -0.565810270920   -1.556017647340    2.123926786537
