16

 N   -2.062098302052    0.403013643581   -0.402637541527
 C   -0.829972569785   -0.227276636427   -0.401682581219
 N   -0.559831633659   -1.548162111395   -0.405146770166
 C    0.768297534804   -1.766356004145   -0.389579341503
 H    1.082105817774   -2.813034736635   -0.386199770812
 N    1.780646977845   -0.858375047004   -0.375608071228
 C    1.468430233938    0.452446036245   -0.380254475128
 N    2.476057188740    1.376944673550   -0.422076312059
 H    3.407508726127    1.046414564798   -0.199618377926
 H    2.243319682713    2.336915428589   -0.197266066619
 C    0.102929393064    0.829139890112   -0.389025562843
 N   -0.520599918127    2.068105590742   -0.379147353825
 C   -1.820525405284    1.760026202381   -0.387602206983
 H   -2.630578934071    2.486607003483   -0.383554069120
 H   -2.965887979222   -0.057243480253   -0.410240597460
NA   -0.566214286149   -1.556548496764    2.294832661291
