16

 N   -2.061995141285    0.403149190041   -0.446276444003
 C   -0.829869409018   -0.227141089967   -0.445321483695
 N   -0.559728472892   -1.548026564935   -0.448785672642
 C    0.768400695571   -1.766220457685   -0.433218243979
 H    1.082208978541   -2.812899190175   -0.429838673288
 N    1.780750138612   -0.858239500544   -0.419246973704
 C    1.468533394705    0.452581582705   -0.423893377604
 N    2.476160349507    1.377080220010   -0.465715214535
 H    3.407611886894    1.046550111258   -0.243257280402
 H    2.243422843480    2.337050975049   -0.240904969095
 C    0.103032553831    0.829275436572   -0.432664465319
 N   -0.520496757360    2.068241137202   -0.422786256301
 C   -1.820422244517    1.760161748841   -0.431241109459
 H   -2.630475773304    2.486742549943   -0.427192971596
 H   -2.965784818455   -0.057107933793   -0.453879499936
NA   -0.566820308991   -1.557344770901    2.551191473421
