16

 N   -2.061891980518    0.403284736500   -0.489915346479
 C   -0.829766248251   -0.227005543508   -0.488960386171
 N   -0.559625312125   -1.547891018476   -0.492424575118
 C    0.768503856338   -1.766084911226   -0.476857146455
 H    1.082312139308   -2.812763643716   -0.473477575764
 N    1.780853299379   -0.858103954085   -0.462885876180
 C    1.468636555472    0.452717129164   -0.467532280080
 N    2.476263510274    1.377215766469   -0.509354117011
 H    3.407715047661    1.046685657717   -0.286896182878
 H    2.243526004247    2.337186521508   -0.284543871571
 C    0.103135714598    0.829410983031   -0.476303367795
 N   -0.520393596593    2.068376683661   -0.466425158777
 C   -1.820319083750    1.760297295300   -0.474880011935
 H   -2.630372612537    2.486878096402   -0.470831874072
 H   -2.965681657688   -0.056972387334   -0.497518402412
NA   -0.567426331834   -1.558141045038    2.807550285551
