16

 N   -2.061857593595    0.403329918654   -0.504461647304
 C   -0.829731861328   -0.226960361354   -0.503506686996
 N   -0.559590925202   -1.547845836322   -0.506970875943
 C    0.768538243261   -1.766039729072   -0.491403447280
 H    1.082346526231   -2.812718461562   -0.488023876589
 N    1.780887686302   -0.858058771931   -0.477432177005
 C    1.468670942395    0.452762311318   -0.482078580905
 N    2.476297897197    1.377260948623   -0.523900417836
 H    3.407749434584    1.046730839871   -0.301442483703
 H    2.243560391170    2.337231703662   -0.299090172396
 C    0.103170101521    0.829456165185   -0.490849668620
 N   -0.520359209670    2.068421865815   -0.480971459602
 C   -1.820284696827    1.760342477454   -0.489426312760
 H   -2.630338225614    2.486923278556   -0.485378174897
 H   -2.965647270765   -0.056927205180   -0.512064703237
NA   -0.567628339448   -1.558406469751    2.893003222928
