16

 N   -2.061754432828    0.403465465113   -0.548100549781
 C   -0.829628700561   -0.226824814895   -0.547145589473
 N   -0.559487764435   -1.547710289863   -0.550609778420
 C    0.768641404028   -1.765904182613   -0.535042349757
 H    1.082449686998   -2.812582915103   -0.531662779066
 N    1.780990847069   -0.857923225472   -0.521071079482
 C    1.468774103162    0.452897857777   -0.525717483382
 N    2.476401057964    1.377396495082   -0.567539320313
 H    3.407852595351    1.046866386330   -0.345081386180
 H    2.243663551937    2.337367250121   -0.342729074873
 C    0.103273262288    0.829591711644   -0.534488571097
 N   -0.520256048903    2.068557412274   -0.524610362079
 C   -1.820181536060    1.760478023913   -0.533065215237
 H   -2.630235064847    2.487058825015   -0.529017077374
 H   -2.965544109998   -0.056791658721   -0.555703605714
NA   -0.568234362291   -1.559202743887    3.149362035058
