16

 N   -2.061651272061    0.403601011573   -0.591739452257
 C   -0.829525539794   -0.226689268435   -0.590784491949
 N   -0.559384603668   -1.547574743403   -0.594248680896
 C    0.768744564795   -1.765768636153   -0.578681252233
 H    1.082552847765   -2.812447368643   -0.575301681542
 N    1.781094007836   -0.857787679012   -0.564709981958
 C    1.468877263929    0.453033404237   -0.569356385858
 N    2.476504218731    1.377532041542   -0.611178222789
 H    3.407955756118    1.047001932790   -0.388720288656
 H    2.243766712704    2.337502796581   -0.386367977349
 C    0.103376423055    0.829727258104   -0.578127473573
 N   -0.520152888136    2.068692958734   -0.568249264555
 C   -1.820078375293    1.760613570373   -0.576704117713
 H   -2.630131904080    2.487194371475   -0.572655979850
 H   -2.965440949231   -0.056656112261   -0.599342508190
NA   -0.568840385134   -1.559999018024    3.405720847188
