16

 N   -2.061479337449    0.403826922339   -0.664470956384
 C   -0.829353605182   -0.226463357669   -0.663515996076
 N   -0.559212669056   -1.547348832637   -0.666980185023
 C    0.768916499407   -1.765542725387   -0.651412756360
 H    1.082724782377   -2.812221457877   -0.648033185669
 N    1.781265942448   -0.857561768246   -0.637441486085
 C    1.469049198541    0.453259315003   -0.642087889985
 N    2.476676153343    1.377757952308   -0.683909726916
 H    3.408127690730    1.047227843556   -0.461451792783
 H    2.243938647316    2.337728707347   -0.459099481476
 C    0.103548357667    0.829953168870   -0.650858977700
 N   -0.519980953524    2.068918869500   -0.640980768682
 C   -1.819906440681    1.760839481139   -0.649435621840
 H   -2.629959969468    2.487420282241   -0.645387483977
 H   -2.965269014619   -0.056430201495   -0.672074012317
NA   -0.569850423205   -1.561326141586    3.832985534071
