16

 N   -2.061376176682    0.403962468799   -0.708109858860
 C   -0.829250444415   -0.226327811209   -0.707154898552
 N   -0.559109508289   -1.547213286177   -0.710619087499
 C    0.769019660174   -1.765407178927   -0.695051658836
 H    1.082827943144   -2.812085911417   -0.691672088145
 N    1.781369103215   -0.857426221786   -0.681080388561
 C    1.469152359308    0.453394861463   -0.685726792461
 N    2.476779314110    1.377893498768   -0.727548629392
 H    3.408230851497    1.047363390016   -0.505090695259
 H    2.244041808083    2.337864253807   -0.502738383952
 C    0.103651518434    0.830088715330   -0.694497880176
 N   -0.519877792757    2.069054415960   -0.684619671158
 C   -1.819803279914    1.760975027599   -0.693074524316
 H   -2.629856808701    2.487555828701   -0.689026386453
 H   -2.965165853852   -0.056294655035   -0.715712914793
NA   -0.570456446048   -1.562122415723    4.089344346201
