16

 N   -2.061307402837    0.404052833106   -0.737202460511
 C   -0.829181670570   -0.226237446902   -0.736247500203
 N   -0.559040734444   -1.547122921870   -0.739711689150
 C    0.769088434019   -1.765316814620   -0.724144260487
 H    1.082896716989   -2.811995547110   -0.720764689796
 N    1.781437877060   -0.857335857479   -0.710172990212
 C    1.469221133153    0.453485225770   -0.714819394112
 N    2.476848087955    1.377983863075   -0.756641231043
 H    3.408299625342    1.047453754323   -0.534183296910
 H    2.244110581928    2.337954618114   -0.531830985603
 C    0.103720292279    0.830179079637   -0.723590481827
 N   -0.519809018912    2.069144780267   -0.713712272809
 C   -1.819734506069    1.761065391906   -0.722167125967
 H   -2.629788034856    2.487646193008   -0.718118988104
 H   -2.965097080007   -0.056204290728   -0.744805516444
NA   -0.570860461276   -1.562653265147    4.260250220955
