16

 N   -2.061238628992    0.404143197412   -0.766295062162
 C   -0.829112896725   -0.226147082596   -0.765340101854
 N   -0.558971960599   -1.547032557564   -0.768804290801
 C    0.769157207864   -1.765226450314   -0.753236862138
 H    1.082965490834   -2.811905182804   -0.749857291447
 N    1.781506650905   -0.857245493173   -0.739265591863
 C    1.469289906998    0.453575590076   -0.743911995763
 N    2.476916861800    1.378074227381   -0.785733832694
 H    3.408368399187    1.047544118629   -0.563275898561
 H    2.244179355773    2.338044982420   -0.560923587254
 C    0.103789066124    0.830269443943   -0.752683083478
 N   -0.519740245067    2.069235144573   -0.742804874460
 C   -1.819665732224    1.761155756212   -0.751259727618
 H   -2.629719261011    2.487736557314   -0.747211589755
 H   -2.965028306162   -0.056113926422   -0.773898118095
NA   -0.571264476505   -1.563184114572    4.431156095708
