16

 N   -2.060963533613    0.404504654638   -0.882665468765
 C   -0.828837801346   -0.225785625370   -0.881710508457
 N   -0.558696865220   -1.546671100338   -0.885174697404
 C    0.769432303243   -1.764864993088   -0.869607268741
 H    1.083240586213   -2.811543725578   -0.866227698050
 N    1.781781746284   -0.856884035947   -0.855635998466
 C    1.469565002377    0.453937047302   -0.860282402366
 N    2.477191957179    1.378435684607   -0.902104239297
 H    3.408643494566    1.047905575855   -0.679646305164
 H    2.244454451152    2.338406439646   -0.677293993857
 C    0.104064161503    0.830630901169   -0.869053490081
 N   -0.519465149688    2.069596601799   -0.859175281063
 C   -1.819390636845    1.761517213438   -0.867630134221
 H   -2.629444165632    2.488098014540   -0.863581996358
 H   -2.964753210783   -0.055752469196   -0.890268524698
NA   -0.572880537419   -1.565307512270    5.114779594721
