16

 N   -2.060929146691    0.404549836791   -0.897211769590
 C   -0.828803414424   -0.225740443217   -0.896256809282
 N   -0.558662478298   -1.546625918185   -0.899720998229
 C    0.769466690165   -1.764819810935   -0.884153569566
 H    1.083274973135   -2.811498543425   -0.880773998875
 N    1.781816133206   -0.856838853794   -0.870182299291
 C    1.469599389299    0.453982229455   -0.874828703191
 N    2.477226344101    1.378480866760   -0.916650540122
 H    3.408677881488    1.047950758008   -0.694192605989
 H    2.244488838074    2.338451621799   -0.691840294682
 C    0.104098548425    0.830676083322   -0.883599790906
 N   -0.519430762766    2.069641783952   -0.873721581888
 C   -1.819356249923    1.761562395591   -0.882176435046
 H   -2.629409778710    2.488143196693   -0.878128297183
 H   -2.964718823861   -0.055707287043   -0.904814825523
NA   -0.573082545033   -1.565572936982    5.200232532098
