16

 N   -2.060860372846    0.404640201098   -0.926304371241
 C   -0.828734640579   -0.225650078910   -0.925349410933
 N   -0.558593704453   -1.546535553878   -0.928813599880
 C    0.769535464010   -1.764729446628   -0.913246171217
 H    1.083343746980   -2.811408179118   -0.909866600526
 N    1.781884907051   -0.856748489487   -0.899274900942
 C    1.469668163144    0.454072593762   -0.903921304842
 N    2.477295117946    1.378571231067   -0.945743141773
 H    3.408746655333    1.048041122315   -0.723285207640
 H    2.244557611919    2.338541986106   -0.720932896333
 C    0.104167322270    0.830766447629   -0.912692392557
 N   -0.519361988921    2.069732148259   -0.902814183539
 C   -1.819287476078    1.761652759898   -0.911269036697
 H   -2.629341004865    2.488233561000   -0.907220898834
 H   -2.964650050016   -0.055616922736   -0.933907427174
NA   -0.573486560261   -1.566103786407    5.371138406851
