16

 N   -2.060825985924    0.404685383251   -0.940850672067
 C   -0.828700253657   -0.225604896757   -0.939895711759
 N   -0.558559317531   -1.546490371725   -0.943359900706
 C    0.769569850932   -1.764684264475   -0.927792472043
 H    1.083378133902   -2.811362996965   -0.924412901352
 N    1.781919293973   -0.856703307334   -0.913821201768
 C    1.469702550066    0.454117775915   -0.918467605668
 N    2.477329504868    1.378616413220   -0.960289442599
 H    3.408781042255    1.048086304468   -0.737831508466
 H    2.244591998841    2.338587168259   -0.735479197159
 C    0.104201709192    0.830811629782   -0.927238693383
 N   -0.519327601999    2.069777330412   -0.917360484365
 C   -1.819253089156    1.761697942051   -0.925815337523
 H   -2.629306617943    2.488278743153   -0.921767199660
 H   -2.964615663094   -0.055571740583   -0.948453728000
NA   -0.573688567876   -1.566369211119    5.456591344228
