16

 N   -2.060757212079    0.404775747557   -0.969943273717
 C   -0.828631479812   -0.225514532451   -0.968988313409
 N   -0.558490543686   -1.546400007419   -0.972452502356
 C    0.769638624777   -1.764593900169   -0.956885073693
 H    1.083446907747   -2.811272632659   -0.953505503002
 N    1.781988067818   -0.856612943028   -0.942913803418
 C    1.469771323911    0.454208140221   -0.947560207318
 N    2.477398278713    1.378706777526   -0.989382044249
 H    3.408849816100    1.048176668774   -0.766924110116
 H    2.244660772686    2.338677532565   -0.764571798809
 C    0.104270483037    0.830901994088   -0.956331295033
 N   -0.519258828154    2.069867694718   -0.946453086015
 C   -1.819184315311    1.761788306357   -0.954907939173
 H   -2.629237844098    2.488369107459   -0.950859801310
 H   -2.964546889249   -0.055481376277   -0.977546329650
NA   -0.574092583104   -1.566900060544    5.627497218982
