16

 N   -2.060688438234    0.404866111864   -0.999035875368
 C   -0.828562705967   -0.225424168144   -0.998080915060
 N   -0.558421769841   -1.546309643112   -1.001545104007
 C    0.769707398622   -1.764503535862   -0.985977675344
 H    1.083515681592   -2.811182268352   -0.982598104653
 N    1.782056841663   -0.856522578721   -0.972006405069
 C    1.469840097756    0.454298504528   -0.976652808969
 N    2.477467052558    1.378797141833   -1.018474645900
 H    3.408918589945    1.048267033081   -0.796016711767
 H    2.244729546531    2.338767896872   -0.793664400460
 C    0.104339256882    0.830992358395   -0.985423896684
 N   -0.519190054309    2.069958059025   -0.975545687666
 C   -1.819115541466    1.761878670664   -0.984000540824
 H   -2.629169070253    2.488459471766   -0.979952402961
 H   -2.964478115404   -0.055391011970   -1.006638931301
NA   -0.574496598333   -1.567430909969    5.798403093735
