16

 N   -2.060585277467    0.405001658324   -1.042674777844
 C   -0.828459545200   -0.225288621684   -1.041719817536
 N   -0.558318609074   -1.546174096652   -1.045184006483
 C    0.769810559389   -1.764367989402   -1.029616577820
 H    1.083618842359   -2.811046721892   -1.026237007129
 N    1.782160002430   -0.856387032261   -1.015645307545
 C    1.469943258523    0.454434050988   -1.020291711445
 N    2.477570213325    1.378932688293   -1.062113548376
 H    3.409021750712    1.048402579541   -0.839655614243
 H    2.244832707298    2.338903443332   -0.837303302936
 C    0.104442417649    0.831127904855   -1.029062799160
 N   -0.519086893542    2.070093605485   -1.019184590142
 C   -1.819012380699    1.762014217124   -1.027639443300
 H   -2.629065909486    2.488595018226   -1.023591305437
 H   -2.964374954637   -0.055255465510   -1.050277833777
NA   -0.575102621175   -1.568227184105    6.054761905865
