16

 N   -2.060447729777    0.405182386937   -1.100859981146
 C   -0.828321997510   -0.225107893071   -1.099905020838
 N   -0.558181061384   -1.545993368039   -1.103369209785
 C    0.769948107079   -1.764187260789   -1.087801781122
 H    1.083756390049   -2.810865993279   -1.084422210431
 N    1.782297550120   -0.856206303648   -1.073830510847
 C    1.470080806213    0.454614779601   -1.078476914747
 N    2.477707761015    1.379113416906   -1.120298751678
 H    3.409159298402    1.048583308154   -0.897840817545
 H    2.244970254988    2.339084171945   -0.895488506238
 C    0.104579965339    0.831308633468   -1.087248002462
 N   -0.518949345852    2.070274334098   -1.077369793444
 C   -1.818874833009    1.762194945737   -1.085824646602
 H   -2.628928361796    2.488775746839   -1.081776508739
 H   -2.964237406947   -0.055074736897   -1.108463037079
NA   -0.575910651632   -1.569288882955    6.396573655372
