16

 N   -2.060344569010    0.405317933396   -1.144498883622
 C   -0.828218836743   -0.224972346612   -1.143543923314
 N   -0.558077900617   -1.545857821580   -1.147008112261
 C    0.770051267846   -1.764051714330   -1.131440683598
 H    1.083859550816   -2.810730446820   -1.128061112907
 N    1.782400710887   -0.856070757189   -1.117469413323
 C    1.470183966980    0.454750326060   -1.122115817223
 N    2.477810921782    1.379248963365   -1.163937654154
 H    3.409262459169    1.048718854613   -0.941479720021
 H    2.245073415755    2.339219718404   -0.939127408714
 C    0.104683126106    0.831444179927   -1.130886904938
 N   -0.518846185085    2.070409880557   -1.121008695920
 C   -1.818771672242    1.762330492196   -1.129463549078
 H   -2.628825201029    2.488911293298   -1.125415411215
 H   -2.964134246180   -0.054939190438   -1.152101939555
NA   -0.576516674475   -1.570085157091    6.652932467502
