16

 N   -2.060207021321    0.405498662009   -1.202684086924
 C   -0.828081289054   -0.224791617999   -1.201729126616
 N   -0.557940352928   -1.545677092967   -1.205193315563
 C    0.770188815535   -1.763870985717   -1.189625886900
 H    1.083997098505   -2.810549718207   -1.186246316209
 N    1.782538258576   -0.855890028576   -1.175654616625
 C    1.470321514669    0.454931054673   -1.180301020525
 N    2.477948469471    1.379429691978   -1.222122857456
 H    3.409400006858    1.048899583226   -0.999664923323
 H    2.245210963444    2.339400447017   -0.997312612016
 C    0.104820673795    0.831624908540   -1.189072108240
 N   -0.518708637396    2.070590609170   -1.179193899222
 C   -1.818634124553    1.762511220809   -1.187648752380
 H   -2.628687653340    2.489092021911   -1.183600614517
 H   -2.963996698491   -0.054758461825   -1.210287142857
NA   -0.577324704932   -1.571146855941    6.994744217008
