16

 N   -2.060000699786    0.405769754929   -1.289961891876
 C   -0.827874967519   -0.224520525079   -1.289006931568
 N   -0.557734031393   -1.545406000047   -1.292471120515
 C    0.770395137070   -1.763599892797   -1.276903691852
 H    1.084203420040   -2.810278625287   -1.273524121161
 N    1.782744580111   -0.855618935656   -1.262932421577
 C    1.470527836204    0.455202147593   -1.267578825477
 N    2.478154791006    1.379700784898   -1.309400662408
 H    3.409606328393    1.049170676146   -1.086942728275
 H    2.245417284979    2.339671539937   -1.084590416968
 C    0.105026995330    0.831896001460   -1.276349913192
 N   -0.518502315861    2.070861702090   -1.266471704174
 C   -1.818427803018    1.762782313729   -1.274926557332
 H   -2.628481331805    2.489363114831   -1.270878419469
 H   -2.963790376956   -0.054487368905   -1.297564947809
NA   -0.578536750618   -1.572739404214    7.507461841269
