16

 N   -2.059966312864    0.405814937082   -1.304508192702
 C   -0.827840580597   -0.224475342926   -1.303553232394
 N   -0.557699644471   -1.545360817894   -1.307017421341
 C    0.770429523992   -1.763554710644   -1.291449992678
 H    1.084237806962   -2.810233443134   -1.288070421987
 N    1.782778967033   -0.855573753503   -1.277478722403
 C    1.470562223126    0.455247329746   -1.282125126303
 N    2.478189177928    1.379745967051   -1.323946963234
 H    3.409640715315    1.049215858299   -1.101489029101
 H    2.245451671901    2.339716722090   -1.099136717794
 C    0.105061382252    0.831941183613   -1.290896214018
 N   -0.518467928939    2.070906884243   -1.281018005000
 C   -1.818393416096    1.762827495882   -1.289472858158
 H   -2.628446944883    2.489408296984   -1.285424720295
 H   -2.963755990034   -0.054442186752   -1.312111248635
NA   -0.578738758232   -1.573004828927    7.592914778645
