16

 N   -2.059931925941    0.405860119235   -1.319054493527
 C   -0.827806193674   -0.224430160773   -1.318099533219
 N   -0.557665257548   -1.545315635741   -1.321563722166
 C    0.770463910915   -1.763509528491   -1.305996293503
 H    1.084272193885   -2.810188260981   -1.302616722812
 N    1.782813353956   -0.855528571350   -1.292025023228
 C    1.470596610049    0.455292511899   -1.296671427128
 N    2.478223564851    1.379791149204   -1.338493264059
 H    3.409675102238    1.049261040452   -1.116035329926
 H    2.245486058824    2.339761904243   -1.113683018619
 C    0.105095769175    0.831986365766   -1.305442514843
 N   -0.518433542016    2.070952066396   -1.295564305825
 C   -1.818359029173    1.762872678035   -1.304019158983
 H   -2.628412557960    2.489453479137   -1.299971021120
 H   -2.963721603111   -0.054397004599   -1.326657549460
NA   -0.578940765846   -1.573270253639    7.678367716022
