16

 N   -2.059863152097    0.405950483542   -1.348147095178
 C   -0.827737419830   -0.224339796466   -1.347192134870
 N   -0.557596483704   -1.545225271434   -1.350656323817
 C    0.770532684759   -1.763419164184   -1.335088895154
 H    1.084340967729   -2.810097896674   -1.331709324463
 N    1.782882127800   -0.855438207043   -1.321117624879
 C    1.470665383893    0.455382876206   -1.325764028779
 N    2.478292338695    1.379881513511   -1.367585865710
 H    3.409743876082    1.049351404759   -1.145127931577
 H    2.245554832668    2.339852268550   -1.142775620270
 C    0.105164543019    0.832076730073   -1.334535116494
 N   -0.518364768172    2.071042430703   -1.324656907476
 C   -1.818290255329    1.762963042342   -1.333111760634
 H   -2.628343784116    2.489543843444   -1.329063622771
 H   -2.963652829267   -0.054306640292   -1.355750151111
NA   -0.579344781075   -1.573801103064    7.849273590775
