16

 N   -2.059794378252    0.406040847848   -1.377239696829
 C   -0.827668645985   -0.224249432160   -1.376284736521
 N   -0.557527709859   -1.545134907128   -1.379748925468
 C    0.770601458604   -1.763328799878   -1.364181496805
 H    1.084409741574   -2.810007532368   -1.360801926114
 N    1.782950901645   -0.855347842737   -1.350210226530
 C    1.470734157738    0.455473240512   -1.354856630430
 N    2.478361112540    1.379971877817   -1.396678467361
 H    3.409812649927    1.049441769065   -1.174220533228
 H    2.245623606513    2.339942632856   -1.171868221921
 C    0.105233316864    0.832167094379   -1.363627718145
 N   -0.518295994327    2.071132795009   -1.353749509127
 C   -1.818221481484    1.763053406648   -1.362204362285
 H   -2.628275010271    2.489634207750   -1.358156224422
 H   -2.963584055422   -0.054216275986   -1.384842752762
NA   -0.579748796303   -1.574331952488    8.020179465529
