16

 N   -2.059759991329    0.406086030001   -1.391785997654
 C   -0.827634259062   -0.224204250007   -1.390831037346
 N   -0.557493322936   -1.545089724975   -1.394295226293
 C    0.770635845527   -1.763283617725   -1.378727797630
 H    1.084444128497   -2.809962350215   -1.375348226939
 N    1.782985288568   -0.855302660584   -1.364756527355
 C    1.470768544661    0.455518422665   -1.369402931255
 N    2.478395499463    1.380017059970   -1.411224768186
 H    3.409847036850    1.049486951218   -1.188766834053
 H    2.245657993436    2.339987815009   -1.186414522746
 C    0.105267703787    0.832212276532   -1.378174018970
 N   -0.518261607404    2.071177977162   -1.368295809952
 C   -1.818187094561    1.763098588801   -1.376750663110
 H   -2.628240623348    2.489679389903   -1.372702525247
 H   -2.963549668499   -0.054171093833   -1.399389053587
NA   -0.579950803917   -1.574597377200    8.105632402905
