16

 N   -2.059725604407    0.406131212155   -1.406332298479
 C   -0.827599872140   -0.224159067853   -1.405377338171
 N   -0.557458936014   -1.545044542821   -1.408841527118
 C    0.770670232449   -1.763238435571   -1.393274098455
 H    1.084478515419   -2.809917168061   -1.389894527764
 N    1.783019675490   -0.855257478430   -1.379302828180
 C    1.470802931583    0.455563604819   -1.383949232080
 N    2.478429886385    1.380062242124   -1.425771069011
 H    3.409881423772    1.049532133372   -1.203313134878
 H    2.245692380358    2.340032997163   -1.200960823571
 C    0.105302090709    0.832257458686   -1.392720319795
 N   -0.518227220482    2.071223159316   -1.382842110777
 C   -1.818152707639    1.763143770955   -1.391296963935
 H   -2.628206236426    2.489724572057   -1.387248826072
 H   -2.963515281577   -0.054125911679   -1.413935354412
NA   -0.580152811532   -1.574862801913    8.191085340282
