16

 N   -2.059656830562    0.406221576461   -1.435424900130
 C   -0.827531098295   -0.224068703547   -1.434469939822
 N   -0.557390162169   -1.544954178515   -1.437934128769
 C    0.770739006294   -1.763148071265   -1.422366700106
 H    1.084547289264   -2.809826803755   -1.418987129415
 N    1.783088449335   -0.855167114124   -1.408395429831
 C    1.470871705428    0.455653969125   -1.413041833731
 N    2.478498660230    1.380152606430   -1.454863670662
 H    3.409950197617    1.049622497678   -1.232405736529
 H    2.245761154203    2.340123361469   -1.230053425222
 C    0.105370864554    0.832347822992   -1.421812921446
 N   -0.518158446637    2.071313523622   -1.411934712428
 C   -1.818083933794    1.763234135261   -1.420389565586
 H   -2.628137462581    2.489814936363   -1.416341427723
 H   -2.963446507732   -0.054035547373   -1.443027956063
NA   -0.580556826760   -1.575393651337    8.361991215035
