11

 H   -2.468906193238   -0.292248665649    0.899499334696
 H   -2.585940298628   -1.042347337373   -0.727568920358
 H   -2.469026563651    0.743551240310   -0.584082181645
 C   -2.148984830729   -0.214330176217   -0.149501638033
 S   -0.340084602711   -0.402354639334   -0.280921399541
 S    0.150412912606    1.295067754850    0.904137602932
 C    1.959313137818    1.106904610447    0.772916517074
 H    2.279236216657    0.149012162433    1.207560434115
 H    2.396268621268    1.934907744302    1.351003920441
 H    2.279353225060    1.184767618707   -0.276052243633
 K    0.228769936121   -1.076678264595   -0.751763370977
