11

 H   -2.485577032836   -0.272486951139    0.913297819979
 H   -2.602611138226   -1.022585622863   -0.713770435075
 H   -2.485697403249    0.763312954820   -0.570283696362
 C   -2.165655670327   -0.194568461707   -0.135703152750
 S   -0.356755442309   -0.382592924824   -0.267122914258
 S    0.133742073008    1.314829469360    0.917936088215
 C    1.942642298220    1.126666324957    0.786715002357
 H    2.262565377059    0.168773876943    1.221358919398
 H    2.379597781670    1.954669458812    1.364802405724
 H    2.262682385462    1.204529333217   -0.262253758350
 K    0.268984550406   -1.124348912611   -0.785049082838
