11

 H   -2.518918712033   -0.232963522119    0.940894790544
 H   -2.635952817423   -0.983062193843   -0.686173464510
 H   -2.519039082446    0.802836383840   -0.542686725797
 C   -2.198997349524   -0.155045032687   -0.108106182185
 S   -0.390097121506   -0.343069495804   -0.239525943693
 S    0.100400393811    1.354352898380    0.945533058780
 C    1.909300619023    1.166189753977    0.814311972922
 H    2.229223697862    0.208297305963    1.248955889963
 H    2.346256102473    1.994192887832    1.392399376289
 H    2.229340706265    1.244052762237   -0.234656787785
 K    0.349413778975   -1.219690208643   -0.851620506560
