11

 H   -2.552260391230   -0.193440093099    0.968491761109
 H   -2.669294496620   -0.943538764823   -0.658576493945
 H   -2.552380761643    0.842359812860   -0.515089755232
 C   -2.232339028721   -0.115521603667   -0.080509211620
 S   -0.423438800703   -0.303546066784   -0.211928973128
 S    0.067058714614    1.393876327400    0.973130029345
 C    1.875958939826    1.205713182997    0.841908943487
 H    2.195882018665    0.247820734983    1.276552860528
 H    2.312914423276    2.033716316852    1.419996346854
 H    2.195999027068    1.283576191257   -0.207059817220
 K    0.429843007544   -1.315031504675   -0.918191930282
