11

 H   -2.602272910026   -0.134154949569    1.009887216957
 H   -2.719307015416   -0.884253621293   -0.617181038097
 H   -2.602393280439    0.901644956390   -0.473694299384
 C   -2.282351547517   -0.056236460137   -0.039113755772
 S   -0.473451319499   -0.244260923254   -0.170533517280
 S    0.017046195818    1.453161470930    1.014525485193
 C    1.825946421030    1.264998326527    0.883304399335
 H    2.145869499869    0.307105878513    1.317948316376
 H    2.262901904480    2.093001460382    1.461391802702
 H    2.145986508272    1.342861334787   -0.165664361372
 K    0.550486850399   -1.458043448723   -1.018049065865
