11

 H   -2.702297947616   -0.015584662508    1.092678128653
 H   -2.819332053006   -0.765683334232   -0.534390126401
 H   -2.702418318029    1.020215243451   -0.390903387688
 C   -2.382376585107    0.062333826924    0.043677155924
 S   -0.573476357089   -0.125690636193   -0.087742605584
 S   -0.082978841772    1.571731757991    1.097316396889
 C    1.725921383440    1.383568613588    0.966095311031
 H    2.045844462279    0.425676165574    1.400739228072
 H    2.162876866890    2.211571747443    1.544182714398
 H    2.045961470682    1.461431621848   -0.082873449676
 K    0.791774536107   -1.744067336819   -1.217763337030
