11

 H   -2.752310466412    0.043700481022    1.134073584501
 H   -2.869344571802   -0.706398190702   -0.492994670553
 H   -2.752430836825    1.079500386981   -0.349507931840
 C   -2.432389103903    0.121618970454    0.085072611772
 S   -0.623488875885   -0.066405492663   -0.046347149736
 S   -0.132991360568    1.631016901521    1.138711852737
 C    1.675908864644    1.442853757118    1.007490766879
 H    1.995831943483    0.484961309104    1.442134683920
 H    2.112864348094    2.270856890973    1.585578170246
 H    1.995948951886    1.520716765378   -0.041477993828
 K    0.912418378961   -1.887079280866   -1.317620472613
