11

 H   -2.852335504002    0.162270768083    1.216864496197
 H   -2.969369609392   -0.587827903641   -0.410203758857
 H   -2.852455874415    1.198070674042   -0.266717020144
 C   -2.532414141493    0.240189257515    0.167863523468
 S   -0.723513913475    0.052164794398    0.036443761960
 S   -0.233016398158    1.749587188582    1.221502764433
 C    1.575883827054    1.561424044179    1.090281678575
 H    1.895806905893    0.603531596165    1.524925595616
 H    2.012839310504    2.389427178034    1.668369081942
 H    1.895923914296    1.639287052439    0.041312917868
 K    1.153706064670   -2.173103168962   -1.517334743779
