11

 H   -2.919018862396    0.241317626123    1.272058437327
 H   -3.036052967786   -0.508781045601   -0.355009817727
 H   -2.919139232809    1.277117532082   -0.211523079014
 C   -2.599097499887    0.319236115555    0.223057464598
 S   -0.790197271869    0.131211652438    0.091637703090
 S   -0.299699756552    1.828634046622    1.276696705563
 C    1.509200468660    1.640470902219    1.145475619705
 H    1.829123547499    0.682578454205    1.580119536746
 H    1.946155952110    2.468474036074    1.723563023072
 H    1.829240555902    1.718333910479    0.096506858998
 K    1.314564521808   -2.363785761026   -1.650477591223
