11

 H   -2.969031381192    0.300602769653    1.313453893175
 H   -3.086065486582   -0.449495902071   -0.313614361879
 H   -2.969151751605    1.336402675612   -0.170127623166
 C   -2.649110018683    0.378521259085    0.264452920446
 S   -0.840209790665    0.190496795968    0.133033158938
 S   -0.349712275348    1.887919190152    1.318092161411
 C    1.459187949864    1.699756045749    1.186871075553
 H    1.779111028703    0.741863597735    1.621514992594
 H    1.896143433314    2.527759179604    1.764958478920
 H    1.779228037106    1.777619054009    0.137902314846
 K    1.435208364663   -2.506797705074   -1.750334726806
