11

 H   -3.035714739585    0.379649627694    1.368647834306
 H   -3.152748844975   -0.370449044030   -0.258420420748
 H   -3.035835109998    1.415449533653   -0.114933682035
 C   -2.715793377076    0.457568117126    0.319646861577
 S   -0.906893149058    0.269543654009    0.188227100069
 S   -0.416395633741    1.966966048193    1.373286102542
 C    1.392504591471    1.778802903790    1.242065016684
 H    1.712427670310    0.820910455776    1.676708933725
 H    1.829460074921    2.606806037645    1.820152420051
 H    1.712544678713    1.856665912050    0.193096255977
 K    1.596066821802   -2.697480297138   -1.883477574250
