11

 H   -3.119068937578    0.478458200244    1.437640260719
 H   -3.236103042968   -0.271640471480   -0.189427994335
 H   -3.119189307991    1.514258106203   -0.045941255622
 C   -2.799147575069    0.556376689676    0.388639287990
 S   -0.990247347051    0.368352226559    0.257219526482
 S   -0.499749831734    2.065774620743    1.442278528955
 C    1.309150393478    1.877611476340    1.311057443097
 H    1.629073472317    0.919719028326    1.745701360138
 H    1.746105876928    2.705614610195    1.889144846464
 H    1.629190480720    1.955474484600    0.262088682390
 K    1.797139893225   -2.935833537218   -2.049906133555
