11

 H   -3.135739777176    0.498219914754    1.451438746002
 H   -3.252773882566   -0.251878756970   -0.175629509052
 H   -3.135860147589    1.534019820713   -0.032142770339
 C   -2.815818414667    0.576138404186    0.402437773273
 S   -1.006918186649    0.388113941069    0.271018011765
 S   -0.516420671332    2.085536335253    1.456077014238
 C    1.292479553880    1.897373190850    1.324855928380
 H    1.612402632719    0.939480742836    1.759499845421
 H    1.729435037330    2.725376324705    1.902943331747
 H    1.612519641122    1.975236199110    0.275887167673
 K    1.837354507510   -2.983504185234   -2.083191845416
