11

 H   -3.169081456373    0.537743343775    1.479035716567
 H   -3.286115561763   -0.212355327949   -0.148032538487
 H   -3.169201826786    1.573543249734   -0.004545799774
 C   -2.849160093864    0.615661833207    0.430034743838
 S   -1.040259865846    0.427637370090    0.298614982330
 S   -0.549762350529    2.125059764274    1.483673984803
 C    1.259137874683    1.936896619871    1.352452898945
 H    1.579060953522    0.979004171857    1.787096815986
 H    1.696093358133    2.764899753726    1.930540302312
 H    1.579177961925    2.014759628131    0.303484138238
 K    1.917783736079   -3.078845481266   -2.149763269138
