11

 H   -3.219093975168    0.597028487305    1.520431172415
 H   -3.336128080558   -0.153070184419   -0.106637082639
 H   -3.219214345581    1.632828393264    0.036849656074
 C   -2.899172612659    0.674946976737    0.471430199686
 S   -1.090272384641    0.486922513620    0.340010438178
 S   -0.599774869324    2.184344907804    1.525069440651
 C    1.209125355888    1.996181763401    1.393848354793
 H    1.529048434727    1.038289315387    1.828492271834
 H    1.646080839338    2.824184897256    1.971935758160
 H    1.529165443130    2.074044771661    0.344879594086
 K    2.038427578934   -3.221857425314   -2.249620404721
