11

 H   -3.235764814767    0.616790201815    1.534229657697
 H   -3.352798920157   -0.133308469909   -0.092838597357
 H   -3.235885185180    1.652590107774    0.050648141356
 C   -2.915843452258    0.694708691247    0.485228684968
 S   -1.106943224240    0.506684228130    0.353808923460
 S   -0.616445708923    2.204106622314    1.538867925933
 C    1.192454516289    2.015943477911    1.407646840075
 H    1.512377595128    1.058051029897    1.842290757116
 H    1.629409999739    2.843946611766    1.985734243442
 H    1.512494603531    2.093806486171    0.358678079368
 K    2.078642193218   -3.269528073330   -2.282906116582
