11

 H   -3.319119012759    0.715598774366    1.603222084111
 H   -3.436153118149   -0.034499897358   -0.023846170943
 H   -3.319239383172    1.751398680325    0.119640567770
 C   -2.999197650250    0.793517263798    0.554221111382
 S   -1.190297422232    0.605492800681    0.422801349874
 S   -0.699799906915    2.302915194865    1.607860352347
 C    1.109100318297    2.114752050462    1.476639266489
 H    1.429023397136    1.156859602448    1.911283183530
 H    1.546055801747    2.942755184317    2.054726669856
 H    1.429140405539    2.192615058722    0.427670505782
 K    2.279715264642   -3.507881313409   -2.449334675886
