11

 H   -3.402473210751    0.814407346916    1.672214510524
 H   -3.519507316141    0.064308675192    0.045146255470
 H   -3.402593581164    1.850207252875    0.188632994183
 C   -3.082551848242    0.892325836348    0.623213537795
 S   -1.273651620224    0.704301373231    0.491793776287
 S   -0.783154104907    2.401723767415    1.676852778760
 C    1.025746120305    2.213560623012    1.545631692902
 H    1.345669199144    1.255668174998    1.980275609943
 H    1.462701603755    3.041563756867    2.123719096269
 H    1.345786207547    2.291423631272    0.496662932195
 K    2.480788336066   -3.746234553489   -2.615763235191
