11

 H   -3.435814889948    0.853930775936    1.699811481089
 H   -3.552848995338    0.103832104212    0.072743226035
 H   -3.435935260361    1.889730681895    0.216229964748
 C   -3.115893527439    0.931849265368    0.650810508360
 S   -1.306993299421    0.743824802251    0.519390746852
 S   -0.816495784104    2.441247196435    1.704449749325
 C    0.992404441108    2.253084052032    1.573228663467
 H    1.312327519947    1.295191604018    2.007872580508
 H    1.429359924558    3.081087185887    2.151316066834
 H    1.312444528350    2.330947060292    0.524259902760
 K    2.561217564635   -3.841575849521   -2.682334658913
