11

 H   -3.452485729547    0.873692490446    1.713609966372
 H   -3.569519834937    0.123593818722    0.086541711318
 H   -3.452606099960    1.909492396405    0.230028450031
 C   -3.132564367038    0.951610979878    0.664608993643
 S   -1.323664139020    0.763586516761    0.533189232135
 S   -0.833166623703    2.461008910945    1.718248234608
 C    0.975733601509    2.272845766542    1.587027148750
 H    1.295656680348    1.314953318528    2.021671065791
 H    1.412689084959    3.100848900397    2.165114552117
 H    1.295773688751    2.350708774802    0.538058388043
 K    2.601432178920   -3.889246497537   -2.715620370774
