11

 H   -3.469156569145    0.893454204956    1.727408451654
 H   -3.586190674535    0.143355533232    0.100340196600
 H   -3.469276939558    1.929254110915    0.243826935313
 C   -3.149235206636    0.971372694388    0.678407478925
 S   -1.340334978618    0.783348231271    0.546987717417
 S   -0.849837463301    2.480770625455    1.732046719890
 C    0.959062761911    2.292607481052    1.600825634032
 H    1.278985840750    1.334715033038    2.035469551073
 H    1.396018245361    3.120610614907    2.178913037399
 H    1.279102849153    2.370470489312    0.551856873325
 K    2.641646793204   -3.936917145553   -2.748906082635
