11

 H   -3.502498248342    0.932977633977    1.755005422220
 H   -3.619532353732    0.182878962253    0.127937167166
 H   -3.502618618755    1.968777539936    0.271423905879
 C   -3.182576885833    1.010896123409    0.706004449491
 S   -1.373676657815    0.822871660292    0.574584687983
 S   -0.883179142498    2.520294054476    1.759643690456
 C    0.925721082714    2.332130910073    1.628422604598
 H    1.245644161553    1.374238462059    2.063066521639
 H    1.362676566164    3.160134043928    2.206510007965
 H    1.245761169956    2.409993918333    0.579453843891
 K    2.722076021774   -4.032258441585   -2.815477506357
