11

 H   -3.569181606736    1.012024492017    1.810199363350
 H   -3.686215712126    0.261925820293    0.183131108296
 H   -3.569301977149    2.047824397976    0.326617847009
 C   -3.249260244227    1.089942981449    0.761198390621
 S   -1.440360016209    0.901918518332    0.629778629113
 S   -0.949862500892    2.599340912516    1.814837631586
 C    0.859037724320    2.411177768113    1.683616545728
 H    1.178960803159    1.453285320099    2.118260462769
 H    1.295993207770    3.239180901968    2.261703949095
 H    1.179077811562    2.489040776373    0.634647785021
 K    2.882934478913   -4.222941033649   -2.948620353801
