11

 H   -3.669206644327    1.130594779078    1.892990275046
 H   -3.786240749717    0.380496107354    0.265922019992
 H   -3.669327014740    2.166394685037    0.409408758705
 C   -3.349285281818    1.208513268510    0.843989302317
 S   -1.540385053800    1.020488805393    0.712569540809
 S   -1.049887538483    2.717911199577    1.897628543282
 C    0.759012686729    2.529748055174    1.766407457424
 H    1.078935765568    1.571855607160    2.201051374465
 H    1.195968170179    3.357751189029    2.344494860791
 H    1.079052773971    2.607611063434    0.717438696717
 K    3.124222164621   -4.508964921745   -3.148334624967
