11

 H   -3.702548323523    1.170118208098    1.920587245611
 H   -3.819582428913    0.420019536374    0.293518990557
 H   -3.702668693936    2.205918114057    0.437005729270
 C   -3.382626961014    1.248036697530    0.871586272882
 S   -1.573726732996    1.060012234413    0.740166511374
 S   -1.083229217679    2.757434628597    1.925225513847
 C    0.725671007533    2.569271484194    1.794004427989
 H    1.045594086372    1.611379036180    2.228648345030
 H    1.162626490983    3.397274618049    2.372091831356
 H    1.045711094775    2.647134492454    0.745035667282
 K    3.204651393191   -4.604306217777   -3.214906048689
