11

 H   -3.719219163122    1.189879922608    1.934385730894
 H   -3.836253268512    0.439781250884    0.307317475840
 H   -3.719339533535    2.225679828567    0.450804214553
 C   -3.399297800613    1.267798412040    0.885384758165
 S   -1.590397572595    1.079773948923    0.753964996657
 S   -1.099900057278    2.777196343107    1.939023999130
 C    0.709000167934    2.589033198704    1.807802913272
 H    1.028923246773    1.631140750690    2.242446830313
 H    1.145955651384    3.417036332559    2.385890316639
 H    1.029040255176    2.666896206964    0.758834152565
 K    3.244866007475   -4.651976865793   -3.248191760550
