11

 H   -3.769231681917    1.249165066138    1.975781186742
 H   -3.886265787307    0.499066394414    0.348712931688
 H   -3.769352052330    2.284964972097    0.492199670401
 C   -3.449310319408    1.327083555570    0.926780214013
 S   -1.640410091390    1.139059092453    0.795360452505
 S   -1.149912576073    2.836481486637    1.980419454978
 C    0.658987649139    2.648318342234    1.849198369120
 H    0.978910727978    1.690425894220    2.283842286161
 H    1.095943132589    3.476321476089    2.427285772487
 H    0.979027736381    2.726181350494    0.800229608413
 K    3.365509850330   -4.794988809840   -3.348048896133
