11

 H   -3.852585879909    1.347973638689    2.044773613155
 H   -3.969619985299    0.597874966965    0.417705358101
 H   -3.852706250322    2.383773544648    0.561192096814
 C   -3.532664517400    1.425892128121    0.995772640426
 S   -1.723764289382    1.237867665004    0.864352878918
 S   -1.233266774065    2.935290059188    2.049411881391
 C    0.575633451147    2.747126914785    1.918190795533
 H    0.895556529986    1.789234466771    2.352834712574
 H    1.012588934597    3.575130048640    2.496278198900
 H    0.895673538389    2.824989923045    0.869222034826
 K    3.566582921753   -5.033342049920   -3.514477455438
