11

 H   -3.869256719508    1.367735353199    2.058572098438
 H   -3.986290824898    0.617636681475    0.431503843384
 H   -3.869377089921    2.403535259158    0.574990582097
 C   -3.549335356999    1.445653842631    1.009571125709
 S   -1.740435128981    1.257629379514    0.878151364201
 S   -1.249937613664    2.955051773698    2.063210366674
 C    0.558962611548    2.766888629295    1.931989280816
 H    0.878885690387    1.808996181281    2.366633197857
 H    0.995918094998    3.594891763150    2.510076684183
 H    0.879002698790    2.844751637555    0.883020520109
 K    3.606797536038   -5.081012697936   -3.547763167299
