11

 H   -3.952610917500    1.466543925749    2.127564524851
 H   -4.069645022890    0.716445254025    0.500496269797
 H   -3.952731287913    2.502343831708    0.643983008510
 C   -3.632689554991    1.544462415181    1.078563552122
 S   -1.823789326973    1.356437952064    0.947143790614
 S   -1.333291811656    3.053860346248    2.132202793087
 C    0.475608413556    2.865697201845    2.000981707229
 H    0.795531492395    1.907804753831    2.435625624270
 H    0.912563897006    3.693700335700    2.579069110596
 H    0.795648500798    2.943560210105    0.952012946522
 K    3.807870607462   -5.319365938016   -3.714191726604
