26

 N    2.261620757664    2.712843432540    0.101135573293
 C    3.482710757664    3.403073432540    0.111755573293
 H    3.401200757664    4.488253432540    0.171845573293
 C    2.189170757664    1.369243432540    0.030725573293
 O    1.045250757664    0.755883432540    0.022035573293
 N    3.353130757664    0.703563432540   -0.030034426707
 H    3.328730757664   -0.314746567460   -0.083524426707
 C    4.693750757664    1.281773432540   -0.027154426707
 O    5.646540757664    0.534093432540   -0.086684426707
 C    4.667130757664    2.739523432540    0.051105573293
 H    5.615140757664    3.277373432540    0.059695573293
 H    1.387810757664    3.228943432540    0.147365573293
LI   -0.039709242336   -0.118366567460    1.292745573293
LI   -0.090069242336    0.024513432540   -1.295474426707
 O   -1.037129024458   -0.750012502104   -0.021857707646
 C   -2.181045767896   -1.363371229049   -0.030547717020
 N   -2.253498303896   -2.706969027235   -0.100942310820
 H   -1.379687414735   -3.223061267622   -0.147157259669
 C   -3.474580263980   -3.397196001504   -0.111565904810
 H   -3.393074824092   -4.482372402666   -0.171642969730
 C   -4.658999992439   -2.733645226167   -0.050928327476
 H   -5.607011946625   -3.271490546321   -0.059527537254
 C   -4.685616602280   -1.275885886660    0.027310244604
 O   -5.638409531803   -0.528210428684    0.086821177153
 N   -3.345002671502   -0.697684575172    0.030196781795
 H   -3.320603957184    0.320620733004    0.083666418805
