26

 N    2.452233111361    2.850686861001    0.105153381026
 C    3.673323111361    3.540916861001    0.115773381026
 H    3.591813111361    4.626096861001    0.175863381026
 C    2.379783111361    1.507086861001    0.034743381026
 O    1.235863111361    0.893726861001    0.026053381026
 N    3.543743111361    0.841406861001   -0.026016618974
 H    3.519343111361   -0.176903138999   -0.079506618974
 C    4.884363111361    1.419616861001   -0.023136618974
 O    5.837153111361    0.671936861001   -0.082666618974
 C    4.857743111361    2.877366861001    0.055123381026
 H    5.805753111361    3.415216861001    0.063713381026
 H    1.578423111361    3.366786861001    0.151383381026
LI    0.150903111361    0.019476861001    1.296763381026
LI    0.100543111361    0.162356861001   -1.291456618974
 O   -1.251616579979   -0.905121546411   -0.026378766971
 C   -2.395533323417   -1.518480273356   -0.035068776345
 N   -2.467985859417   -2.862078071543   -0.105463370145
 H   -1.594174970256   -3.378170311930   -0.151678318994
 C   -3.689067819501   -3.552305045812   -0.116086964135
 H   -3.607562379613   -4.637481446974   -0.176164029055
 C   -4.873487547960   -2.888754270474   -0.055449386801
 H   -5.821499502146   -3.426599590628   -0.064048596579
 C   -4.900104157801   -1.430994930967    0.022789185279
 O   -5.852897087324   -0.683319472992    0.082300117828
 N   -3.559490227023   -0.852793619479    0.025675722470
 H   -3.535091512705    0.165511688696    0.079145359480
