26

 N    2.528478052840    2.905824232385    0.106760504119
 C    3.749568052840    3.596054232385    0.117380504119
 H    3.668058052840    4.681234232385    0.177470504119
 C    2.456028052840    1.562224232385    0.036350504119
 O    1.312108052840    0.948864232385    0.027660504119
 N    3.619988052840    0.896544232385   -0.024409495881
 H    3.595588052840   -0.121765767615   -0.077899495881
 C    4.960608052840    1.474754232385   -0.021529495881
 O    5.913398052840    0.727074232385   -0.081059495881
 C    4.933988052840    2.932504232385    0.056730504119
 H    5.881998052840    3.470354232385    0.065320504119
 H    1.654668052840    3.421924232385    0.152990504119
LI    0.227148052840    0.074614232385    1.298370504119
LI    0.176788052840    0.217494232385   -1.289849495881
 O   -1.337411602188   -0.967165164135   -0.028187190701
 C   -2.481328345626   -1.580523891080   -0.036877200075
 N   -2.553780881625   -2.924121689266   -0.107271793875
 H   -1.679969992465   -3.440213929653   -0.153486742724
 C   -3.774862841709   -3.614348663535   -0.117895387865
 H   -3.693357401822   -4.699525064697   -0.177972452785
 C   -4.959282570169   -2.950797888197   -0.057257810531
 H   -5.907294524355   -3.488643208351   -0.065857020309
 C   -4.985899180009   -1.493038548690    0.020980761549
 O   -5.938692109532   -0.745363090715    0.080491694098
 N   -3.645285249231   -0.914837237202    0.023867298740
 H   -3.620886534914    0.103468070973    0.077336935750
