26

 N    5.616398182728    5.138887773448    0.171848989390
 C    6.837488182728    5.829117773448    0.182468989390
 H    6.755978182728    6.914297773448    0.242558989390
 C    5.543948182728    3.795287773448    0.101438989390
 O    4.400028182728    3.181927773448    0.092748989390
 N    6.707908182728    3.129607773448    0.040678989390
 H    6.683508182728    2.111297773448   -0.012811010610
 C    8.048528182728    3.707817773448    0.043558989390
 O    9.001318182728    2.960137773448   -0.015971010610
 C    8.021908182728    5.165567773448    0.121818989390
 H    8.969918182728    5.703417773448    0.130408989390
 H    4.742588182728    5.654987773448    0.218078989390
LI    3.315068182728    2.307677773448    1.363458989390
LI    3.264708182728    2.450557773448   -1.224761010610
 O   -4.812110001628   -3.479931681920   -0.101428351768
 C   -5.956026745065   -4.093290408865   -0.110118361142
 N   -6.028479281065   -5.436888207051   -0.180512954942
 H   -5.154668391905   -5.952980447438   -0.226727903791
 C   -7.249561241149   -6.127115181320   -0.191136548932
 H   -7.168055801262   -7.212291582482   -0.251213613852
 C   -8.433980969609   -5.463564405983   -0.130498971598
 H   -9.381992923795   -6.001409726137   -0.139098181376
 C   -8.460597579449   -4.005805066476   -0.052260399518
 O   -9.413390508972   -3.258129608501    0.007250533031
 N   -7.119983648671   -3.427603754988   -0.049373862327
 H   -7.095584934354   -2.409298446813    0.004095774683
