26

 N    2.719090406537    3.043667660846    0.110778311852
 C    3.940180406537    3.733897660846    0.121398311852
 H    3.858670406537    4.819077660846    0.181488311852
 C    2.646640406537    1.700067660846    0.040368311852
 O    1.502720406537    1.086707660846    0.031678311852
 N    3.810600406537    1.034387660846   -0.020391688148
 H    3.786200406537    0.016077660846   -0.073881688148
 C    5.151220406537    1.612597660846   -0.017511688148
 O    6.104010406537    0.864917660846   -0.077041688148
 C    5.124600406537    3.070347660846    0.060748311852
 H    6.072610406537    3.608197660846    0.069338311852
 H    1.845280406537    3.559767660846    0.157008311852
LI    0.417760406537    0.212457660846    1.302388311852
LI    0.367400406537    0.355337660846   -1.285831688148
 O   -1.551899157709   -1.122274208442   -0.032708250027
 C   -2.695815901146   -1.735632935387   -0.041398259400
 N   -2.768268437146   -3.079230733573   -0.111792853200
 H   -1.894457547986   -3.595322973961   -0.158007802049
 C   -3.989350397230   -3.769457707842   -0.122416447190
 H   -3.907844957343   -4.854634109005   -0.182493512111
 C   -5.173770125690   -3.105906932505   -0.061778869856
 H   -6.121782079876   -3.643752252659   -0.070378079634
 C   -5.200386735530   -1.648147592998    0.016459702224
 O   -6.153179665053   -0.900472135023    0.075970634773
 N   -3.859772804752   -1.069946281510    0.019346239414
 H   -3.835374090435   -0.051640973335    0.072815876424
