26

 N    2.833457818755    3.126373717922    0.113188996491
 C    4.054547818755    3.816603717922    0.123808996491
 H    3.973037818755    4.901783717922    0.183898996491
 C    2.761007818755    1.782773717922    0.042778996491
 O    1.617087818755    1.169413717922    0.034088996491
 N    3.924967818755    1.117093717922   -0.017981003509
 H    3.900567818755    0.098783717922   -0.071471003509
 C    5.265587818755    1.695303717922   -0.015101003509
 O    6.218377818755    0.947623717922   -0.074631003509
 C    5.238967818755    3.153053717922    0.063158996491
 H    6.186977818755    3.690903717922    0.071748996491
 H    1.959647818755    3.642473717922    0.159418996491
LI    0.532127818755    0.295163717922    1.304798996491
LI    0.481767818755    0.438043717922   -1.283421003509
 O   -1.680591691021   -1.215339635027   -0.035420885622
 C   -2.824508434459   -1.828698361972   -0.044110894995
 N   -2.896960970459   -3.172296160158   -0.114505488796
 H   -2.023150081298   -3.688388400545   -0.160720437644
 C   -4.118042930543   -3.862523134427   -0.125129082785
 H   -4.036537490655   -4.947699535589   -0.185206147706
 C   -5.302462659002   -3.198972359090   -0.064491505451
 H   -6.250474613188   -3.736817679244   -0.073090715229
 C   -5.329079268843   -1.741213019583    0.013747066628
 O   -6.281872198366   -0.993537561608    0.073257999178
 N   -3.988465338065   -1.163011708095    0.016633603819
 H   -3.964066623747   -0.144706399920    0.070103240829
