26

 N    2.871580289494    3.153942403615    0.113992558038
 C    4.092670289494    3.844172403615    0.124612558038
 H    4.011160289494    4.929352403615    0.184702558038
 C    2.799130289494    1.810342403615    0.043582558038
 O    1.655210289494    1.196982403615    0.034892558038
 N    3.963090289494    1.144662403615   -0.017177441962
 H    3.938690289494    0.126352403615   -0.070667441962
 C    5.303710289494    1.722872403615   -0.014297441962
 O    6.256500289494    0.975192403615   -0.073827441962
 C    5.277090289494    3.180622403615    0.063962558038
 H    6.225100289494    3.718472403615    0.072552558038
 H    1.997770289494    3.670042403615    0.160222558038
LI    0.570250289494    0.322732403615    1.305602558038
LI    0.519890289494    0.465612403615   -1.282617441962
 O   -1.723489202125   -1.246361443888   -0.036325097487
 C   -2.867405945563   -1.859720170833   -0.045015106860
 N   -2.939858481563   -3.203317969020   -0.115409700661
 H   -2.066047592403   -3.719410209407   -0.161624649509
 C   -4.160940441647   -3.893544943289   -0.126033294650
 H   -4.079435001759   -4.978721344451   -0.186110359571
 C   -5.345360170106   -3.229994167951   -0.065395717316
 H   -6.293372124292   -3.767839488105   -0.073994927094
 C   -5.371976779947   -1.772234828444    0.012842854763
 O   -6.324769709470   -1.024559370469    0.072353787313
 N   -4.031362849169   -1.194033516956    0.015729391954
 H   -4.006964134851   -0.175728208781    0.069199028964
