26

 N    2.947825230973    3.209079774999    0.115599681131
 C    4.168915230973    3.899309774999    0.126219681131
 H    4.087405230973    4.984489774999    0.186309681131
 C    2.875375230973    1.865479774999    0.045189681131
 O    1.731455230973    1.252119774999    0.036499681131
 N    4.039335230973    1.199799774999   -0.015570318869
 H    4.014935230973    0.181489774999   -0.069060318869
 C    5.379955230973    1.778009774999   -0.012690318869
 O    6.332745230973    1.030329774999   -0.072220318869
 C    5.353335230973    3.235759774999    0.065569681131
 H    6.301345230973    3.773609774999    0.074159681131
 H    2.074015230973    3.725179774999    0.161829681131
LI    0.646495230973    0.377869774999    1.307209681131
LI    0.596135230973    0.520749774999   -1.281010318869
 O   -1.809284224334   -1.308405061612   -0.038133521217
 C   -2.953200967772   -1.921763788557   -0.046823530590
 N   -3.025653503771   -3.265361586743   -0.117218124391
 H   -2.151842614611   -3.781453827130   -0.163433073239
 C   -4.246735463855   -3.955588561012   -0.127841718380
 H   -4.165230023968   -5.040764962174   -0.187918783301
 C   -5.431155192315   -3.292037785674   -0.067204141046
 H   -6.379167146501   -3.829883105828   -0.075803350824
 C   -5.457771802155   -1.834278446168    0.011034431033
 O   -6.410564731678   -1.086602988192    0.070545363583
 N   -4.117157871377   -1.256077134680    0.013920968224
 H   -4.092759157060   -0.237771826504    0.067390605234
