26

 N    3.062192643191    3.291785832075    0.118010365771
 C    4.283282643191    3.982015832075    0.128630365771
 H    4.201772643191    5.067195832075    0.188720365771
 C    2.989742643191    1.948185832075    0.047600365771
 O    1.845822643191    1.334825832075    0.038910365771
 N    4.153702643191    1.282505832075   -0.013159634229
 H    4.129302643191    0.264195832075   -0.066649634229
 C    5.494322643191    1.860715832075   -0.010279634229
 O    6.447112643191    1.113035832075   -0.069809634229
 C    5.467702643191    3.318465832075    0.067980365771
 H    6.415712643191    3.856315832075    0.076570365771
 H    2.188382643191    3.807885832075    0.164240365771
LI    0.760862643191    0.460575832075    1.309620365771
LI    0.710502643191    0.603455832075   -1.278599634229
 O   -1.937976757646   -1.401470488196   -0.040846156812
 C   -3.081893501084   -2.014829215141   -0.049536166185
 N   -3.154346037084   -3.358427013327   -0.119930759986
 H   -2.280535147924   -3.874519253715   -0.166145708834
 C   -4.375427997168   -4.048653987596   -0.130554353975
 H   -4.293922557280   -5.133830388759   -0.190631418896
 C   -5.559847725627   -3.385103212259   -0.069916776641
 H   -6.507859679813   -3.922948532413   -0.078515986419
 C   -5.586464335468   -1.927343872752    0.008321795438
 O   -6.539257264991   -1.179668414777    0.067832727988
 N   -4.245850404690   -1.349142561264    0.011208332629
 H   -4.221451690372   -0.330837253089    0.064677969639
