26

 N    3.100315113930    3.319354517767    0.118813927317
 C    4.321405113930    4.009584517767    0.129433927317
 H    4.239895113930    5.094764517767    0.189523927317
 C    3.027865113930    1.975754517767    0.048403927317
 O    1.883945113930    1.362394517767    0.039713927317
 N    4.191825113930    1.310074517767   -0.012356072683
 H    4.167425113930    0.291764517767   -0.065846072683
 C    5.532445113930    1.888284517767   -0.009476072683
 O    6.485235113930    1.140604517767   -0.069006072683
 C    5.505825113930    3.346034517767    0.068783927317
 H    6.453835113930    3.883884517767    0.077373927317
 H    2.226505113930    3.835454517767    0.165043927317
LI    0.798985113930    0.488144517767    1.310423927317
LI    0.748625113930    0.631024517767   -1.277796072683
 O   -1.980874268751   -1.432492297058   -0.041750368677
 C   -3.124791012188   -2.045851024003   -0.050440378050
 N   -3.197243548188   -3.389448822189   -0.120834971851
 H   -2.323432659028   -3.905541062576   -0.167049920699
 C   -4.418325508272   -4.079675796458   -0.131458565840
 H   -4.336820068384   -5.164852197620   -0.191535630761
 C   -5.602745236732   -3.416125021121   -0.070820988506
 H   -6.550757190918   -3.953970341275   -0.079420198284
 C   -5.629361846572   -1.958365681614    0.007417583573
 O   -6.582154776095   -1.210690223638    0.066928516123
 N   -4.288747915794   -1.380164370126    0.010304120764
 H   -4.264349201477   -0.361859061951    0.063773757774
