26

 N    3.176560055409    3.374491889152    0.120421050410
 C    4.397650055409    4.064721889152    0.131041050410
 H    4.316140055409    5.149901889152    0.191131050410
 C    3.104110055409    2.030891889152    0.050011050410
 O    1.960190055409    1.417531889152    0.041321050410
 N    4.268070055409    1.365211889152   -0.010748949590
 H    4.243670055409    0.346901889152   -0.064238949590
 C    5.608690055409    1.943421889152   -0.007868949590
 O    6.561480055409    1.195741889152   -0.067398949590
 C    5.582070055409    3.401171889152    0.070391050410
 H    6.530080055409    3.939021889152    0.078981050410
 H    2.302750055409    3.890591889152    0.166651050410
LI    0.875230055409    0.543281889152    1.312031050410
LI    0.824870055409    0.686161889152   -1.276188949590
 O   -2.066669290959   -1.494535914781   -0.043558792407
 C   -3.210586034397   -2.107894641726   -0.052248801780
 N   -3.283038570397   -3.451492439912   -0.122643395581
 H   -2.409227681236   -3.967584680299   -0.168858344429
 C   -4.504120530480   -4.141719414181   -0.133266989570
 H   -4.422615090593   -5.226895815343   -0.193344054491
 C   -5.688540258940   -3.478168638844   -0.072629412236
 H   -6.636552213126   -4.016013958998   -0.081228622014
 C   -5.715156868781   -2.020409299337    0.005609159843
 O   -6.667949798303   -1.272733841362    0.065120092393
 N   -4.374542938002   -1.442207987849    0.008495697034
 H   -4.350144223685   -0.423902679674    0.061965334044
