26

 N    3.214682526148    3.402060574844    0.121224611957
 C    4.435772526148    4.092290574844    0.131844611957
 H    4.354262526148    5.177470574844    0.191934611957
 C    3.142232526148    2.058460574844    0.050814611957
 O    1.998312526148    1.445100574844    0.042124611957
 N    4.306192526148    1.392780574844   -0.009945388043
 H    4.281792526148    0.374470574844   -0.063435388043
 C    5.646812526148    1.970990574844   -0.007065388043
 O    6.599602526148    1.223310574844   -0.066595388043
 C    5.620192526148    3.428740574844    0.071194611957
 H    6.568202526148    3.966590574844    0.079784611957
 H    2.340872526148    3.918160574844    0.167454611957
LI    0.913352526148    0.570850574844    1.312834611957
LI    0.862992526148    0.713730574844   -1.275385388043
 O   -2.109566802063   -1.525557723642   -0.044463004272
 C   -3.253483545501   -2.138916450587   -0.053153013645
 N   -3.325936081501   -3.482514248774   -0.123547607446
 H   -2.452125192340   -3.998606489161   -0.169762556294
 C   -4.547018041585   -4.172741223043   -0.134171201435
 H   -4.465512601697   -5.257917624205   -0.194248266356
 C   -5.731437770044   -3.509190447705   -0.073533624101
 H   -6.679449724230   -4.047035767859   -0.082132833879
 C   -5.758054379885   -2.051431108198    0.004704947978
 O   -6.710847309408   -1.303755650223    0.064215880528
 N   -4.417440449107   -1.473229796710    0.007591485169
 H   -4.393041734789   -0.454924488535    0.061061122179
