26

 N    3.329049938366    3.484766631920    0.123635296597
 C    4.550139938366    4.174996631920    0.134255296597
 H    4.468629938366    5.260176631920    0.194345296597
 C    3.256599938366    2.141166631920    0.053225296597
 O    2.112679938366    1.527806631920    0.044535296597
 N    4.420559938366    1.475486631920   -0.007534703403
 H    4.396159938366    0.457176631920   -0.061024703403
 C    5.761179938366    2.053696631920   -0.004654703403
 O    6.713969938366    1.306016631920   -0.064184703403
 C    5.734559938366    3.511446631920    0.073605296597
 H    6.682569938366    4.049296631920    0.082195296597
 H    2.455239938366    4.000866631920    0.169865296597
LI    1.027719938366    0.653556631920    1.315245296597
LI    0.977359938366    0.796436631920   -1.272974703403
 O   -2.238259335376   -1.618623150227   -0.047175639867
 C   -3.382176078814   -2.231981877172   -0.055865649240
 N   -3.454628614813   -3.575579675358   -0.126260243041
 H   -2.580817725653   -4.091671915745   -0.172475191889
 C   -4.675710574897   -4.265806649627   -0.136883837030
 H   -4.594205135010   -5.350983050789   -0.196960901951
 C   -5.860130303357   -3.602255874290   -0.076246259696
 H   -6.808142257543   -4.140101194444   -0.084845469475
 C   -5.886746913197   -2.144496534783    0.001992312383
 O   -6.839539842720   -1.396821076808    0.061503244933
 N   -4.546132982419   -1.566295223295    0.004878849574
 H   -4.521734268102   -0.547989915120    0.058348486584
