26

 N    3.405294879845    3.539904003304    0.125242419690
 C    4.626384879845    4.230134003304    0.135862419690
 H    4.544874879845    5.315314003304    0.195952419690
 C    3.332844879845    2.196304003304    0.054832419690
 O    2.188924879845    1.582944003304    0.046142419690
 N    4.496804879845    1.530624003304   -0.005927580310
 H    4.472404879845    0.512314003304   -0.059417580310
 C    5.837424879845    2.108834003304   -0.003047580310
 O    6.790214879845    1.361154003304   -0.062577580310
 C    5.810804879845    3.566584003304    0.075212419690
 H    6.758814879845    4.104434003304    0.083802419690
 H    2.531484879845    4.056004003304    0.171472419690
LI    1.103964879845    0.708694003304    1.316852419690
LI    1.053604879845    0.851574003304   -1.271367580310
 O   -2.324054357584   -1.680666767950   -0.048984063597
 C   -3.467971101022   -2.294025494895   -0.057674072970
 N   -3.540423637022   -3.637623293081   -0.128068666771
 H   -2.666612747861   -4.153715533469   -0.174283615619
 C   -4.761505597106   -4.327850267350   -0.138692260760
 H   -4.680000157218   -5.413026668513   -0.198769325681
 C   -5.945925325565   -3.664299492013   -0.078054683427
 H   -6.893937279751   -4.202144812167   -0.086653893205
 C   -5.972541935406   -2.206540152506    0.000183888653
 O   -6.925334864928   -1.458864694531    0.059694821203
 N   -4.631928004628   -1.628338841018    0.003070425844
 H   -4.607529290310   -0.610033532843    0.056540062854
