26

 N    3.443417350584    3.567472688997    0.126045981236
 C    4.664507350584    4.257702688997    0.136665981236
 H    4.582997350584    5.342882688997    0.196755981236
 C    3.370967350584    2.223872688997    0.055635981236
 O    2.227047350584    1.610512688997    0.046945981236
 N    4.534927350584    1.558192688997   -0.005124018764
 H    4.510527350584    0.539882688997   -0.058614018764
 C    5.875547350584    2.136402688997   -0.002244018764
 O    6.828337350584    1.388722688997   -0.061774018764
 C    5.848927350584    3.594152688997    0.076015981236
 H    6.796937350584    4.132002688997    0.084605981236
 H    2.569607350584    4.083572688997    0.172275981236
LI    1.142087350584    0.736262688997    1.317655981236
LI    1.091727350584    0.879142688997   -1.270564018764
 O   -2.366951868688   -1.711688576812   -0.049888275462
 C   -3.510868612126   -2.325047303757   -0.058578284835
 N   -3.583321148126   -3.668645101943   -0.128972878636
 H   -2.709510258966   -4.184737342330   -0.175187827484
 C   -4.804403108210   -4.358872076212   -0.139596472625
 H   -4.722897668322   -5.444048477374   -0.199673537546
 C   -5.988822836669   -3.695321300875   -0.078958895292
 H   -6.936834790855   -4.233166621029   -0.087558105070
 C   -6.015439446510   -2.237561961368   -0.000720323212
 O   -6.968232376033   -1.489886503392    0.058790609338
 N   -4.674825515732   -1.659360649880    0.002166213979
 H   -4.650426801414   -0.641055341705    0.055635850989
