26

 N    3.595907233542    3.677747431765    0.129260227422
 C    4.816997233542    4.367977431765    0.139880227422
 H    4.735487233542    5.453157431765    0.199970227422
 C    3.523457233542    2.334147431765    0.058850227422
 O    2.379537233542    1.720787431765    0.050160227422
 N    4.687417233542    1.668467431765   -0.001909772578
 H    4.663017233542    0.650157431765   -0.055399772578
 C    6.028037233542    2.246677431765    0.000970227422
 O    6.980827233542    1.498997431765   -0.058559772578
 C    6.001417233542    3.704427431765    0.079230227422
 H    6.949427233542    4.242277431765    0.087820227422
 H    2.722097233542    4.193847431765    0.175490227422
LI    1.294577233542    0.846537431765    1.320870227422
LI    1.244217233542    0.989417431765   -1.267349772578
 O   -2.538541913105   -1.835775812258   -0.053505122922
 C   -3.682458656543   -2.449134539203   -0.062195132296
 N   -3.754911192543   -3.792732337389   -0.132589726096
 H   -2.881100303382   -4.308824577776   -0.178804674945
 C   -4.975993152627   -4.482959311658   -0.143213320086
 H   -4.894487712739   -5.568135712820   -0.203290385006
 C   -6.160412881086   -3.819408536321   -0.082575742752
 H   -7.108424835272   -4.357253856475   -0.091174952530
 C   -6.187029490927   -2.361649196814   -0.004337170672
 O   -7.139822420449   -1.613973738839    0.055173761878
 N   -4.846415560148   -1.783447885326   -0.001450633481
 H   -4.822016845831   -0.765142577151    0.052019003529
