26

 N    3.748397116499    3.788022174534    0.132474473609
 C    4.969487116499    4.478252174534    0.143094473609
 H    4.887977116499    5.563432174534    0.203184473609
 C    3.675947116499    2.444422174534    0.062064473609
 O    2.532027116499    1.831062174534    0.053374473609
 N    4.839907116499    1.778742174534    0.001304473609
 H    4.815507116499    0.760432174534   -0.052185526391
 C    6.180527116499    2.356952174534    0.004184473609
 O    7.133317116499    1.609272174534   -0.055345526391
 C    6.153907116499    3.814702174534    0.082444473609
 H    7.101917116499    4.352552174534    0.091034473609
 H    2.874587116499    4.304122174534    0.178704473609
LI    1.447067116499    0.956812174534    1.324084473609
LI    1.396707116499    1.099692174534   -1.264135526391
 O   -2.710131957522   -1.959863047704   -0.057121970382
 C   -3.854048700960   -2.573221774649   -0.065811979756
 N   -3.926501236959   -3.916819572835   -0.136206573556
 H   -3.052690347799   -4.432911813222   -0.182421522405
 C   -5.147583197043   -4.607046547104   -0.146830167546
 H   -5.066077757156   -5.692222948267   -0.206907232466
 C   -6.332002925503   -3.943495771767   -0.086192590212
 H   -7.280014879689   -4.481341091921   -0.094791799990
 C   -6.358619535343   -2.485736432260   -0.007954018132
 O   -7.311412464866   -1.738060974285    0.051556914417
 N   -5.018005604565   -1.907535120772   -0.005067480941
 H   -4.993606890248   -0.889229812597    0.048402156069
