26

 N    3.824642057978    3.843159545918    0.134081596702
 C    5.045732057978    4.533389545918    0.144701596702
 H    4.964222057978    5.618569545918    0.204791596702
 C    3.752192057978    2.499559545918    0.063671596702
 O    2.608272057978    1.886199545918    0.054981596702
 N    4.916152057978    1.833879545918    0.002911596702
 H    4.891752057978    0.815569545918   -0.050578403298
 C    6.256772057978    2.412089545918    0.005791596702
 O    7.209562057978    1.664409545918   -0.053738403298
 C    6.230152057978    3.869839545918    0.084051596702
 H    7.178162057978    4.407689545918    0.092641596702
 H    2.950832057978    4.359259545918    0.180311596702
LI    1.523312057978    1.011949545918    1.325691596702
LI    1.472952057978    1.154829545918   -1.262528403298
 O   -2.795926979730   -2.021906665427   -0.058930394112
 C   -3.939843723168   -2.635265392372   -0.067620403486
 N   -4.012296259168   -3.978863190558   -0.138014997286
 H   -3.138485370008   -4.494955430946   -0.184229946135
 C   -5.233378219252   -4.669090164827   -0.148638591276
 H   -5.151872779364   -5.754266565990   -0.208715656196
 C   -6.417797947711   -4.005539389490   -0.088001013942
 H   -7.365809901897   -4.543384709644   -0.096600223720
 C   -6.444414557552   -2.547780049983   -0.009762441862
 O   -7.397207487075   -1.800104592008    0.049748490687
 N   -5.103800626774   -1.969578738495   -0.006875904671
 H   -5.079401912456   -0.951273430320    0.046593732339
