26

 N    3.939009470196    3.925865602994    0.136492281342
 C    5.160099470196    4.616095602994    0.147112281342
 H    5.078589470196    5.701275602994    0.207202281342
 C    3.866559470196    2.582265602994    0.066082281342
 O    2.722639470196    1.968905602994    0.057392281342
 N    5.030519470196    1.916585602994    0.005322281342
 H    5.006119470196    0.898275602994   -0.048167718658
 C    6.371139470196    2.494795602994    0.008202281342
 O    7.323929470196    1.747115602994   -0.051327718658
 C    6.344519470196    3.952545602994    0.086462281342
 H    7.292529470196    4.490395602994    0.095052281342
 H    3.065199470196    4.441965602994    0.182722281342
LI    1.637679470196    1.094655602994    1.328102281342
LI    1.587319470196    1.237535602994   -1.260117718658
 O   -2.924619513043   -2.114972092012   -0.061643029707
 C   -4.068536256481   -2.728330818957   -0.070333039081
 N   -4.140988792480   -4.071928617143   -0.140727632881
 H   -3.267177903320   -4.588020857530   -0.186942581730
 C   -5.362070752564   -4.762155591412   -0.151351226871
 H   -5.280565312677   -5.847331992574   -0.211428291791
 C   -6.546490481024   -4.098604816075   -0.090713649537
 H   -7.494502435210   -4.636450136229   -0.099312859315
 C   -6.573107090864   -2.640845476568   -0.012475077457
 O   -7.525900020387   -1.893170018593    0.047035855092
 N   -5.232493160086   -2.062644165080   -0.009588540266
 H   -5.208094445769   -1.044338856905    0.043881096744
