26

 N    3.977131940935    3.953434288686    0.137295842888
 C    5.198221940935    4.643664288686    0.147915842888
 H    5.116711940935    5.728844288686    0.208005842888
 C    3.904681940935    2.609834288686    0.066885842888
 O    2.760761940935    1.996474288686    0.058195842888
 N    5.068641940935    1.944154288686    0.006125842888
 H    5.044241940935    0.925844288686   -0.047364157112
 C    6.409261940935    2.522364288686    0.009005842888
 O    7.362051940935    1.774684288686   -0.050524157112
 C    6.382641940935    3.980114288686    0.087265842888
 H    7.330651940935    4.517964288686    0.095855842888
 H    3.103321940935    4.469534288686    0.183525842888
LI    1.675801940935    1.122224288686    1.328905842888
LI    1.625441940935    1.265104288686   -1.259314157112
 O   -2.967517024147   -2.145993900873   -0.062547241572
 C   -4.111433767585   -2.759352627818   -0.071237250946
 N   -4.183886303585   -4.102950426005   -0.141631844746
 H   -3.310075414424   -4.619042666392   -0.187846793595
 C   -5.404968263668   -4.793177400274   -0.152255438736
 H   -5.323462823781   -5.878353801436   -0.212332503656
 C   -6.589387992128   -4.129626624936   -0.091617861402
 H   -7.537399946314   -4.667471945090   -0.100217071180
 C   -6.616004601969   -2.671867285429   -0.013379289322
 O   -7.568797531491   -1.924191827454    0.046131643227
 N   -5.275390671190   -2.093665973941   -0.010492752131
 H   -5.250991956873   -1.075360665766    0.042976884879
