26

 N    4.167744294632    4.091277717147    0.141313650621
 C    5.388834294632    4.781507717147    0.151933650621
 H    5.307324294632    5.866687717147    0.212023650621
 C    4.095294294632    2.747677717147    0.070903650621
 O    2.951374294632    2.134317717147    0.062213650621
 N    5.259254294632    2.081997717147    0.010143650621
 H    5.234854294632    1.063687717147   -0.043346349379
 C    6.599874294632    2.660207717147    0.013023650621
 O    7.552664294632    1.912527717147   -0.046506349379
 C    6.573254294632    4.117957717147    0.091283650621
 H    7.521264294632    4.655807717147    0.099873650621
 H    3.293934294632    4.607377717147    0.187543650621
LI    1.866414294632    1.260067717147    1.332923650621
LI    1.816054294632    1.402947717147   -1.255296349379
 O   -3.182004579668   -2.301102945181   -0.067068300897
 C   -4.325921323106   -2.914461672126   -0.075758310271
 N   -4.398373859106   -4.258059470312   -0.146152904071
 H   -3.524562969945   -4.774151710699   -0.192367852920
 C   -5.619455819189   -4.948286444581   -0.156776498061
 H   -5.537950379302   -6.033462845744   -0.216853562981
 C   -6.803875547649   -4.284735669244   -0.096138920727
 H   -7.751887501835   -4.822580989398   -0.104738130505
 C   -6.830492157490   -2.826976329737   -0.017900348647
 O   -7.783285087012   -2.079300871762    0.041610583902
 N   -5.489878226711   -2.248775018249   -0.015013811457
 H   -5.465479512394   -1.230469710074    0.038455825553
