26

 N    4.205866765372    4.118846402839    0.142117212167
 C    5.426956765372    4.809076402839    0.152737212167
 H    5.345446765372    5.894256402839    0.212827212167
 C    4.133416765372    2.775246402839    0.071707212167
 O    2.989496765372    2.161886402839    0.063017212167
 N    5.297376765372    2.109566402839    0.010947212167
 H    5.272976765372    1.091256402839   -0.042542787833
 C    6.637996765372    2.687776402839    0.013827212167
 O    7.590786765372    1.940096402839   -0.045702787833
 C    6.611376765372    4.145526402839    0.092087212167
 H    7.559386765372    4.683376402839    0.100677212167
 H    3.332056765372    4.634946402839    0.188347212167
LI    1.904536765372    1.287636402839    1.333727212167
LI    1.854176765372    1.430516402839   -1.254492787833
 O   -3.224902090772   -2.332124754043   -0.067972512762
 C   -4.368818834210   -2.945483480988   -0.076662522136
 N   -4.441271370210   -4.289081279174   -0.147057115936
 H   -3.567460481050   -4.805173519561   -0.193272064785
 C   -5.662353330294   -4.979308253443   -0.157680709926
 H   -5.580847890406   -6.064484654605   -0.217757774847
 C   -6.846773058753   -4.315757478106   -0.097043132592
 H   -7.794785012939   -4.853602798260   -0.105642342370
 C   -6.873389668594   -2.857998138599   -0.018804560512
 O   -7.826182598117   -2.110322680623    0.040706372037
 N   -5.532775737816   -2.279796827111   -0.015918023322
 H   -5.508377023498   -1.261491518935    0.037551613688
