26

 N    4.320234177590    4.201552459916    0.144527896807
 C    5.541324177590    4.891782459916    0.155147896807
 H    5.459814177590    5.976962459916    0.215237896807
 C    4.247784177590    2.857952459916    0.074117896807
 O    3.103864177590    2.244592459916    0.065427896807
 N    5.411744177590    2.192272459916    0.013357896807
 H    5.387344177590    1.173962459916   -0.040132103193
 C    6.752364177590    2.770482459916    0.016237896807
 O    7.705154177590    2.022802459916   -0.043292103193
 C    6.725744177590    4.228232459916    0.094497896807
 H    7.673754177590    4.766082459916    0.103087896807
 H    3.446424177590    4.717652459916    0.190757896807
LI    2.018904177590    1.370342459916    1.336137896807
LI    1.968544177590    1.513222459916   -1.252082103193
 O   -3.353594624085   -2.425190180627   -0.070685148358
 C   -4.497511367523   -3.038548907572   -0.079375157731
 N   -4.569963903522   -4.382146705759   -0.149769751531
 H   -3.696153014362   -4.898238946146   -0.195984700380
 C   -5.791045863606   -5.072373680028   -0.160393345521
 H   -5.709540423719   -6.157550081190   -0.220470410442
 C   -6.975465592066   -4.408822904690   -0.099755768187
 H   -7.923477546252   -4.946668224844   -0.108354977965
 C   -7.002082201906   -2.951063565183   -0.021517196107
 O   -7.954875131429   -2.203388107208    0.037993736442
 N   -5.661468271128   -2.372862253695   -0.018630658917
 H   -5.637069556811   -1.354556945520    0.034838978093
