26

 N    4.358356648329    4.229121145608    0.145331458354
 C    5.579446648329    4.919351145608    0.155951458354
 H    5.497936648329    6.004531145608    0.216041458354
 C    4.285906648329    2.885521145608    0.074921458354
 O    3.141986648329    2.272161145608    0.066231458354
 N    5.449866648329    2.219841145608    0.014161458354
 H    5.425466648329    1.201531145608   -0.039328541646
 C    6.790486648329    2.798051145608    0.017041458354
 O    7.743276648329    2.050371145608   -0.042488541646
 C    6.763866648329    4.255801145608    0.095301458354
 H    7.711876648329    4.793651145608    0.103891458354
 H    3.484546648329    4.745221145608    0.191561458354
LI    2.057026648329    1.397911145608    1.336941458354
LI    2.006666648329    1.540791145608   -1.251278541646
 O   -3.396492135189   -2.456211989489   -0.071589360223
 C   -4.540408878627   -3.069570716434   -0.080279369596
 N   -4.612861414627   -4.413168514620   -0.150673963396
 H   -3.739050525466   -4.929260755007   -0.196888912245
 C   -5.833943374710   -5.103395488889   -0.161297557386
 H   -5.752437934823   -6.188571890051   -0.221374622307
 C   -7.018363103170   -4.439844713552   -0.100659980052
 H   -7.966375057356   -4.977690033706   -0.109259189830
 C   -7.044979713011   -2.982085374045   -0.022421407973
 O   -7.997772642533   -2.234409916070    0.037089524577
 N   -5.704365782232   -2.403884062557   -0.019534870782
 H   -5.679967067915   -1.385578754382    0.033934766228
