26

 N    4.434601589808    4.284258516992    0.146938581447
 C    5.655691589808    4.974488516992    0.157558581447
 H    5.574181589808    6.059668516992    0.217648581447
 C    4.362151589808    2.940658516992    0.076528581447
 O    3.218231589808    2.327298516992    0.067838581447
 N    5.526111589808    2.274978516992    0.015768581447
 H    5.501711589808    1.256668516992   -0.037721418553
 C    6.866731589808    2.853188516992    0.018648581447
 O    7.819521589808    2.105508516992   -0.040881418553
 C    6.840111589808    4.310938516992    0.096908581447
 H    7.788121589808    4.848788516992    0.105498581447
 H    3.560791589808    4.800358516992    0.193168581447
LI    2.133271589808    1.453048516992    1.338548581447
LI    2.082911589808    1.595928516992   -1.249671418553
 O   -3.482287157397   -2.518255607212   -0.073397783953
 C   -4.626203900835   -3.131614334157   -0.082087793326
 N   -4.698656436835   -4.475212132343   -0.152482387127
 H   -3.824845547675   -4.991304372730   -0.198697335975
 C   -5.919738396919   -5.165439106612   -0.163105981116
 H   -5.838232957031   -6.250615507774   -0.223183046037
 C   -7.104158125378   -4.501888331275   -0.102468403782
 H   -8.052170079564   -5.039733651429   -0.111067613560
 C   -7.130774735219   -3.044128991768   -0.024229831703
 O   -8.083567664742   -2.296453533793    0.035281100847
 N   -5.790160804441   -2.465927680280   -0.021343294512
 H   -5.765762090124   -1.447622372105    0.032126342498
