26

 N    4.510846531286    4.339395888376    0.148545704540
 C    5.731936531286    5.029625888376    0.159165704540
 H    5.650426531286    6.114805888376    0.219255704540
 C    4.438396531286    2.995795888376    0.078135704540
 O    3.294476531286    2.382435888376    0.069445704540
 N    5.602356531286    2.330115888376    0.017375704540
 H    5.577956531286    1.311805888376   -0.036114295460
 C    6.942976531286    2.908325888376    0.020255704540
 O    7.895766531286    2.160645888376   -0.039274295460
 C    6.916356531286    4.366075888376    0.098515704540
 H    7.864366531286    4.903925888376    0.107105704540
 H    3.637036531286    4.855495888376    0.194775704540
LI    2.209516531286    1.508185888376    1.340155704540
LI    2.159156531286    1.651065888376   -1.248064295460
 O   -3.568082179606   -2.580299224935   -0.075206207683
 C   -4.711998923044   -3.193657951880   -0.083896217056
 N   -4.784451459043   -4.537255750066   -0.154290810857
 H   -3.910640569883   -5.053347990453   -0.200505759705
 C   -6.005533419127   -5.227482724335   -0.164914404846
 H   -5.924027979240   -6.312659125497   -0.224991469767
 C   -7.189953147587   -4.563931948998   -0.104276827512
 H   -8.137965101773   -5.101777269152   -0.112876037290
 C   -7.216569757427   -3.106172609491   -0.026038255433
 O   -8.169362686950   -2.358497151516    0.033472677117
 N   -5.875955826649   -2.527971298003   -0.023151718242
 H   -5.851557112332   -1.509665989828    0.030317918768
