26

 N    4.548969002026    4.366964574068    0.149349266087
 C    5.770059002026    5.057194574068    0.159969266087
 H    5.688549002026    6.142374574068    0.220059266087
 C    4.476519002026    3.023364574068    0.078939266087
 O    3.332599002026    2.410004574068    0.070249266087
 N    5.640479002026    2.357684574068    0.018179266087
 H    5.616079002026    1.339374574068   -0.035310733913
 C    6.981099002026    2.935894574068    0.021059266087
 O    7.933889002026    2.188214574068   -0.038470733913
 C    6.954479002026    4.393644574068    0.099319266087
 H    7.902489002026    4.931494574068    0.107909266087
 H    3.675159002026    4.883064574068    0.195579266087
LI    2.247639002026    1.535754574068    1.340959266087
LI    2.197279002026    1.678634574068   -1.247260733913
 O   -3.610979690710   -2.611321033797   -0.076110419548
 C   -4.754896434148   -3.224679760742   -0.084800428921
 N   -4.827348970148   -4.568277558928   -0.155195022722
 H   -3.953538080987   -5.084369799315   -0.201409971570
 C   -6.048430930231   -5.258504533197   -0.165818616711
 H   -5.966925490344   -6.343680934359   -0.225895681632
 C   -7.232850658691   -4.594953757859   -0.105181039377
 H   -8.180862612877   -5.132799078014   -0.113780249155
 C   -7.259467268532   -3.137194418353   -0.026942467298
 O   -8.212260198054   -2.389518960377    0.032568465252
 N   -5.918853337753   -2.558993106865   -0.024055930107
 H   -5.894454623436   -1.540687798689    0.029413706903
