26

 N    4.587091472765    4.394533259761    0.150152827633
 C    5.808181472765    5.084763259761    0.160772827633
 H    5.726671472765    6.169943259761    0.220862827633
 C    4.514641472765    3.050933259761    0.079742827633
 O    3.370721472765    2.437573259761    0.071052827633
 N    5.678601472765    2.385253259761    0.018982827633
 H    5.654201472765    1.366943259761   -0.034507172367
 C    7.019221472765    2.963463259761    0.021862827633
 O    7.972011472765    2.215783259761   -0.037667172367
 C    6.992601472765    4.421213259761    0.100122827633
 H    7.940611472765    4.959063259761    0.108712827633
 H    3.713281472765    4.910633259761    0.196382827633
LI    2.285761472765    1.563323259761    1.341762827633
LI    2.235401472765    1.706203259761   -1.246457172367
 O   -3.653877201814   -2.642342842658   -0.077014631413
 C   -4.797793945252   -3.255701569603   -0.085704640786
 N   -4.870246481252   -4.599299367789   -0.156099234587
 H   -3.996435592092   -5.115391608177   -0.202314183435
 C   -6.091328441336   -5.289526342058   -0.166722828576
 H   -6.009823001448   -6.374702743221   -0.226799893497
 C   -7.275748169795   -4.625975566721   -0.106085251242
 H   -8.223760123981   -5.163820886875   -0.114684461020
 C   -7.302364779636   -3.168216227214   -0.027846679163
 O   -8.255157709159   -2.420540769239    0.031664253387
 N   -5.961750848858   -2.590014915726   -0.024960141972
 H   -5.937352134540   -1.571709607551    0.028509495038
