26

 N    4.663336414244    4.449670631145    0.151759950726
 C    5.884426414244    5.139900631145    0.162379950726
 H    5.802916414244    6.225080631145    0.222469950726
 C    4.590886414244    3.106070631145    0.081349950726
 O    3.446966414244    2.492710631145    0.072659950726
 N    5.754846414244    2.440390631145    0.020589950726
 H    5.730446414244    1.422080631145   -0.032900049274
 C    7.095466414244    3.018600631145    0.023469950726
 O    8.048256414244    2.270920631145   -0.036060049274
 C    7.068846414244    4.476350631145    0.101729950726
 H    8.016856414244    5.014200631145    0.110319950726
 H    3.789526414244    4.965770631145    0.197989950726
LI    2.362006414244    1.618460631145    1.343369950726
LI    2.311646414244    1.761340631145   -1.244850049274
 O   -3.739672224023   -2.704386460381   -0.078823055143
 C   -4.883588967461   -3.317745187326   -0.087513064516
 N   -4.956041503460   -4.661342985513   -0.157907658317
 H   -4.082230614300   -5.177435225900   -0.204122607165
 C   -6.177123463544   -5.351569959782   -0.168531252306
 H   -6.095618023657   -6.436746360944   -0.228608317227
 C   -7.361543192004   -4.688019184444   -0.107893674972
 H   -8.309555146190   -5.225864504598   -0.116492884750
 C   -7.388159801844   -3.230259844937   -0.029655102893
 O   -8.340952731367   -2.482584386962    0.029855829657
 N   -6.047545871066   -2.652058533449   -0.026768565702
 H   -6.023147156749   -1.633753225274    0.026701071308
